* NGSPICE file created from scan_controller.ext - technology: sky130A

* Black-box entry subcircuit for sky130_fd_sc_hd__decap_3 abstract view
.subckt sky130_fd_sc_hd__decap_3 VGND VNB VPB VPWR
.ends

* Black-box entry subcircuit for sky130_fd_sc_hd__inv_2 abstract view
.subckt sky130_fd_sc_hd__inv_2 A VGND VNB VPB VPWR Y
.ends

* Black-box entry subcircuit for sky130_fd_sc_hd__tapvpwrvgnd_1 abstract view
.subckt sky130_fd_sc_hd__tapvpwrvgnd_1 VGND VPWR
.ends

* Black-box entry subcircuit for sky130_fd_sc_hd__fill_1 abstract view
.subckt sky130_fd_sc_hd__fill_1 VGND VNB VPB VPWR
.ends

* Black-box entry subcircuit for sky130_fd_sc_hd__decap_4 abstract view
.subckt sky130_fd_sc_hd__decap_4 VGND VNB VPB VPWR
.ends

* Black-box entry subcircuit for sky130_ef_sc_hd__decap_12 abstract view
.subckt sky130_ef_sc_hd__decap_12 VGND VNB VPB VPWR
.ends

* Black-box entry subcircuit for sky130_fd_sc_hd__fill_2 abstract view
.subckt sky130_fd_sc_hd__fill_2 VGND VNB VPB VPWR
.ends

* Black-box entry subcircuit for sky130_fd_sc_hd__decap_6 abstract view
.subckt sky130_fd_sc_hd__decap_6 VGND VNB VPB VPWR
.ends

* Black-box entry subcircuit for sky130_fd_sc_hd__decap_8 abstract view
.subckt sky130_fd_sc_hd__decap_8 VGND VNB VPB VPWR
.ends

* Black-box entry subcircuit for sky130_fd_sc_hd__clkbuf_1 abstract view
.subckt sky130_fd_sc_hd__clkbuf_1 A VGND VNB VPB VPWR X
.ends

* Black-box entry subcircuit for sky130_fd_sc_hd__dfrtp_4 abstract view
.subckt sky130_fd_sc_hd__dfrtp_4 CLK D RESET_B VGND VNB VPB VPWR Q
.ends

* Black-box entry subcircuit for sky130_fd_sc_hd__dfxtp_1 abstract view
.subckt sky130_fd_sc_hd__dfxtp_1 CLK D VGND VNB VPB VPWR Q
.ends

* Black-box entry subcircuit for sky130_fd_sc_hd__o21ai_1 abstract view
.subckt sky130_fd_sc_hd__o21ai_1 A1 A2 B1 VGND VNB VPB VPWR Y
.ends

* Black-box entry subcircuit for sky130_fd_sc_hd__and3_1 abstract view
.subckt sky130_fd_sc_hd__and3_1 A B C VGND VNB VPB VPWR X
.ends

* Black-box entry subcircuit for sky130_fd_sc_hd__or2_1 abstract view
.subckt sky130_fd_sc_hd__or2_1 A B VGND VNB VPB VPWR X
.ends

* Black-box entry subcircuit for sky130_fd_sc_hd__clkinv_2 abstract view
.subckt sky130_fd_sc_hd__clkinv_2 A VGND VNB VPB VPWR Y
.ends

* Black-box entry subcircuit for sky130_fd_sc_hd__buf_12 abstract view
.subckt sky130_fd_sc_hd__buf_12 A VGND VNB VPB VPWR X
.ends

* Black-box entry subcircuit for sky130_fd_sc_hd__nand3b_1 abstract view
.subckt sky130_fd_sc_hd__nand3b_1 A_N B C VGND VNB VPB VPWR Y
.ends

* Black-box entry subcircuit for sky130_fd_sc_hd__a22o_1 abstract view
.subckt sky130_fd_sc_hd__a22o_1 A1 A2 B1 B2 VGND VNB VPB VPWR X
.ends

* Black-box entry subcircuit for sky130_fd_sc_hd__clkbuf_16 abstract view
.subckt sky130_fd_sc_hd__clkbuf_16 A VGND VNB VPB VPWR X
.ends

* Black-box entry subcircuit for sky130_fd_sc_hd__dfrtp_1 abstract view
.subckt sky130_fd_sc_hd__dfrtp_1 CLK D RESET_B VGND VNB VPB VPWR Q
.ends

* Black-box entry subcircuit for sky130_fd_sc_hd__a21o_1 abstract view
.subckt sky130_fd_sc_hd__a21o_1 A1 A2 B1 VGND VNB VPB VPWR X
.ends

* Black-box entry subcircuit for sky130_fd_sc_hd__o21a_1 abstract view
.subckt sky130_fd_sc_hd__o21a_1 A1 A2 B1 VGND VNB VPB VPWR X
.ends

* Black-box entry subcircuit for sky130_fd_sc_hd__o211a_1 abstract view
.subckt sky130_fd_sc_hd__o211a_1 A1 A2 B1 C1 VGND VNB VPB VPWR X
.ends

* Black-box entry subcircuit for sky130_fd_sc_hd__nor2_1 abstract view
.subckt sky130_fd_sc_hd__nor2_1 A B VGND VNB VPB VPWR Y
.ends

* Black-box entry subcircuit for sky130_fd_sc_hd__and2_1 abstract view
.subckt sky130_fd_sc_hd__and2_1 A B VGND VNB VPB VPWR X
.ends

* Black-box entry subcircuit for sky130_fd_sc_hd__nor3b_1 abstract view
.subckt sky130_fd_sc_hd__nor3b_1 A B C_N VGND VNB VPB VPWR Y
.ends

* Black-box entry subcircuit for sky130_fd_sc_hd__mux2_1 abstract view
.subckt sky130_fd_sc_hd__mux2_1 A0 A1 S VGND VNB VPB VPWR X
.ends

* Black-box entry subcircuit for sky130_fd_sc_hd__o2bb2a_1 abstract view
.subckt sky130_fd_sc_hd__o2bb2a_1 A1_N A2_N B1 B2 VGND VNB VPB VPWR X
.ends

* Black-box entry subcircuit for sky130_fd_sc_hd__a41o_1 abstract view
.subckt sky130_fd_sc_hd__a41o_1 A1 A2 A3 A4 B1 VGND VNB VPB VPWR X
.ends

* Black-box entry subcircuit for sky130_fd_sc_hd__o21a_2 abstract view
.subckt sky130_fd_sc_hd__o21a_2 A1 A2 B1 VGND VNB VPB VPWR X
.ends

* Black-box entry subcircuit for sky130_fd_sc_hd__or3b_1 abstract view
.subckt sky130_fd_sc_hd__or3b_1 A B C_N VGND VNB VPB VPWR X
.ends

* Black-box entry subcircuit for sky130_fd_sc_hd__o22a_1 abstract view
.subckt sky130_fd_sc_hd__o22a_1 A1 A2 B1 B2 VGND VNB VPB VPWR X
.ends

* Black-box entry subcircuit for sky130_fd_sc_hd__dfxtp_2 abstract view
.subckt sky130_fd_sc_hd__dfxtp_2 CLK D VGND VNB VPB VPWR Q
.ends

* Black-box entry subcircuit for sky130_fd_sc_hd__or4_1 abstract view
.subckt sky130_fd_sc_hd__or4_1 A B C D VGND VNB VPB VPWR X
.ends

* Black-box entry subcircuit for sky130_fd_sc_hd__o31a_1 abstract view
.subckt sky130_fd_sc_hd__o31a_1 A1 A2 A3 B1 VGND VNB VPB VPWR X
.ends

* Black-box entry subcircuit for sky130_fd_sc_hd__nor3_1 abstract view
.subckt sky130_fd_sc_hd__nor3_1 A B C VGND VNB VPB VPWR Y
.ends

* Black-box entry subcircuit for sky130_fd_sc_hd__o221a_1 abstract view
.subckt sky130_fd_sc_hd__o221a_1 A1 A2 B1 B2 C1 VGND VNB VPB VPWR X
.ends

* Black-box entry subcircuit for sky130_fd_sc_hd__a211oi_1 abstract view
.subckt sky130_fd_sc_hd__a211oi_1 A1 A2 B1 C1 VGND VNB VPB VPWR Y
.ends

* Black-box entry subcircuit for sky130_fd_sc_hd__clkbuf_2 abstract view
.subckt sky130_fd_sc_hd__clkbuf_2 A VGND VNB VPB VPWR X
.ends

* Black-box entry subcircuit for sky130_fd_sc_hd__dfstp_1 abstract view
.subckt sky130_fd_sc_hd__dfstp_1 CLK D SET_B VGND VNB VPB VPWR Q
.ends

* Black-box entry subcircuit for sky130_fd_sc_hd__dfstp_2 abstract view
.subckt sky130_fd_sc_hd__dfstp_2 CLK D SET_B VGND VNB VPB VPWR Q
.ends

* Black-box entry subcircuit for sky130_fd_sc_hd__a21oi_1 abstract view
.subckt sky130_fd_sc_hd__a21oi_1 A1 A2 B1 VGND VNB VPB VPWR Y
.ends

* Black-box entry subcircuit for sky130_fd_sc_hd__a32o_1 abstract view
.subckt sky130_fd_sc_hd__a32o_1 A1 A2 A3 B1 B2 VGND VNB VPB VPWR X
.ends

* Black-box entry subcircuit for sky130_fd_sc_hd__or3_1 abstract view
.subckt sky130_fd_sc_hd__or3_1 A B C VGND VNB VPB VPWR X
.ends

* Black-box entry subcircuit for sky130_fd_sc_hd__dfstp_4 abstract view
.subckt sky130_fd_sc_hd__dfstp_4 CLK D SET_B VGND VNB VPB VPWR Q
.ends

* Black-box entry subcircuit for sky130_fd_sc_hd__and4b_1 abstract view
.subckt sky130_fd_sc_hd__and4b_1 A_N B C D VGND VNB VPB VPWR X
.ends

* Black-box entry subcircuit for sky130_fd_sc_hd__buf_2 abstract view
.subckt sky130_fd_sc_hd__buf_2 A VGND VNB VPB VPWR X
.ends

* Black-box entry subcircuit for sky130_fd_sc_hd__a31oi_1 abstract view
.subckt sky130_fd_sc_hd__a31oi_1 A1 A2 A3 B1 VGND VNB VPB VPWR Y
.ends

* Black-box entry subcircuit for sky130_fd_sc_hd__xnor2_1 abstract view
.subckt sky130_fd_sc_hd__xnor2_1 A B VGND VNB VPB VPWR Y
.ends

* Black-box entry subcircuit for sky130_fd_sc_hd__nand4_1 abstract view
.subckt sky130_fd_sc_hd__nand4_1 A B C D VGND VNB VPB VPWR Y
.ends

* Black-box entry subcircuit for sky130_fd_sc_hd__a221oi_1 abstract view
.subckt sky130_fd_sc_hd__a221oi_1 A1 A2 B1 B2 C1 VGND VNB VPB VPWR Y
.ends

* Black-box entry subcircuit for sky130_fd_sc_hd__o21ba_1 abstract view
.subckt sky130_fd_sc_hd__o21ba_1 A1 A2 B1_N VGND VNB VPB VPWR X
.ends

* Black-box entry subcircuit for sky130_fd_sc_hd__a221o_1 abstract view
.subckt sky130_fd_sc_hd__a221o_1 A1 A2 B1 B2 C1 VGND VNB VPB VPWR X
.ends

* Black-box entry subcircuit for sky130_fd_sc_hd__or4b_4 abstract view
.subckt sky130_fd_sc_hd__or4b_4 A B C D_N VGND VNB VPB VPWR X
.ends

* Black-box entry subcircuit for sky130_fd_sc_hd__buf_4 abstract view
.subckt sky130_fd_sc_hd__buf_4 A VGND VNB VPB VPWR X
.ends

* Black-box entry subcircuit for sky130_fd_sc_hd__xor2_1 abstract view
.subckt sky130_fd_sc_hd__xor2_1 A B VGND VNB VPB VPWR X
.ends

* Black-box entry subcircuit for sky130_fd_sc_hd__a21boi_1 abstract view
.subckt sky130_fd_sc_hd__a21boi_1 A1 A2 B1_N VGND VNB VPB VPWR Y
.ends

* Black-box entry subcircuit for sky130_fd_sc_hd__conb_1 abstract view
.subckt sky130_fd_sc_hd__conb_1 VGND VNB VPB VPWR HI LO
.ends

* Black-box entry subcircuit for sky130_fd_sc_hd__and3b_1 abstract view
.subckt sky130_fd_sc_hd__and3b_1 A_N B C VGND VNB VPB VPWR X
.ends

* Black-box entry subcircuit for sky130_fd_sc_hd__nand2_1 abstract view
.subckt sky130_fd_sc_hd__nand2_1 A B VGND VNB VPB VPWR Y
.ends

* Black-box entry subcircuit for sky130_fd_sc_hd__clkbuf_4 abstract view
.subckt sky130_fd_sc_hd__clkbuf_4 A VGND VNB VPB VPWR X
.ends

* Black-box entry subcircuit for sky130_fd_sc_hd__clkbuf_8 abstract view
.subckt sky130_fd_sc_hd__clkbuf_8 A VGND VNB VPB VPWR X
.ends

* Black-box entry subcircuit for sky130_fd_sc_hd__a2bb2o_1 abstract view
.subckt sky130_fd_sc_hd__a2bb2o_1 A1_N A2_N B1 B2 VGND VNB VPB VPWR X
.ends

* Black-box entry subcircuit for sky130_fd_sc_hd__dlygate4sd3_1 abstract view
.subckt sky130_fd_sc_hd__dlygate4sd3_1 A VGND VNB VPB VPWR X
.ends

* Black-box entry subcircuit for sky130_fd_sc_hd__dlymetal6s2s_1 abstract view
.subckt sky130_fd_sc_hd__dlymetal6s2s_1 A VGND VNB VPB VPWR X
.ends

* Black-box entry subcircuit for sky130_fd_sc_hd__o211ai_1 abstract view
.subckt sky130_fd_sc_hd__o211ai_1 A1 A2 B1 C1 VGND VNB VPB VPWR Y
.ends

* Black-box entry subcircuit for sky130_fd_sc_hd__mux2_2 abstract view
.subckt sky130_fd_sc_hd__mux2_2 A0 A1 S VGND VNB VPB VPWR X
.ends

* Black-box entry subcircuit for sky130_fd_sc_hd__and4_1 abstract view
.subckt sky130_fd_sc_hd__and4_1 A B C D VGND VNB VPB VPWR X
.ends

* Black-box entry subcircuit for sky130_fd_sc_hd__and2b_1 abstract view
.subckt sky130_fd_sc_hd__and2b_1 A_N B VGND VNB VPB VPWR X
.ends

* Black-box entry subcircuit for sky130_fd_sc_hd__a21bo_1 abstract view
.subckt sky130_fd_sc_hd__a21bo_1 A1 A2 B1_N VGND VNB VPB VPWR X
.ends

* Black-box entry subcircuit for sky130_fd_sc_hd__or4b_1 abstract view
.subckt sky130_fd_sc_hd__or4b_1 A B C D_N VGND VNB VPB VPWR X
.ends

* Black-box entry subcircuit for sky130_fd_sc_hd__diode_2 abstract view
.subckt sky130_fd_sc_hd__diode_2 DIODE VGND VNB VPB VPWR
.ends

* Black-box entry subcircuit for sky130_fd_sc_hd__a31o_1 abstract view
.subckt sky130_fd_sc_hd__a31o_1 A1 A2 A3 B1 VGND VNB VPB VPWR X
.ends

* Black-box entry subcircuit for sky130_fd_sc_hd__nand2_2 abstract view
.subckt sky130_fd_sc_hd__nand2_2 A B VGND VNB VPB VPWR Y
.ends

* Black-box entry subcircuit for sky130_fd_sc_hd__a211oi_2 abstract view
.subckt sky130_fd_sc_hd__a211oi_2 A1 A2 B1 C1 VGND VNB VPB VPWR Y
.ends

.subckt scan_controller active_select[0] active_select[1] active_select[2] active_select[3]
+ active_select[4] active_select[5] active_select[6] active_select[7] active_select[8]
+ clk driver_sel[0] driver_sel[1] inputs[0] inputs[1] inputs[2] inputs[3] inputs[4]
+ inputs[5] inputs[6] inputs[7] la_scan_clk_in la_scan_data_in la_scan_data_out la_scan_latch_en
+ la_scan_select oeb[0] oeb[10] oeb[11] oeb[12] oeb[13] oeb[14] oeb[15] oeb[16] oeb[17]
+ oeb[18] oeb[19] oeb[1] oeb[20] oeb[21] oeb[22] oeb[23] oeb[24] oeb[25] oeb[26] oeb[27]
+ oeb[28] oeb[29] oeb[2] oeb[30] oeb[31] oeb[32] oeb[33] oeb[34] oeb[35] oeb[36] oeb[37]
+ oeb[3] oeb[4] oeb[5] oeb[6] oeb[7] oeb[8] oeb[9] outputs[0] outputs[1] outputs[2]
+ outputs[3] outputs[4] outputs[5] outputs[6] outputs[7] ready reset scan_clk_in scan_clk_out
+ scan_data_in scan_data_out scan_latch_en scan_select set_clk_div slow_clk vccd1
+ vssd1
XFILLER_27_406 vssd1 vssd1 vccd1 vccd1 sky130_fd_sc_hd__decap_3
X_0638__2 clknet_3_1__leaf_clk vssd1 vssd1 vccd1 vccd1 net82 sky130_fd_sc_hd__inv_2
XTAP_177 vssd1 vccd1 sky130_fd_sc_hd__tapvpwrvgnd_1
XTAP_188 vssd1 vccd1 sky130_fd_sc_hd__tapvpwrvgnd_1
XTAP_199 vssd1 vccd1 sky130_fd_sc_hd__tapvpwrvgnd_1
XFILLER_26_472 vssd1 vssd1 vccd1 vccd1 sky130_fd_sc_hd__fill_1
XFILLER_26_461 vssd1 vssd1 vccd1 vccd1 sky130_fd_sc_hd__decap_4
XFILLER_26_85 vssd1 vssd1 vccd1 vccd1 sky130_ef_sc_hd__decap_12
XFILLER_26_41 vssd1 vssd1 vccd1 vccd1 sky130_ef_sc_hd__decap_12
XFILLER_9_148 vssd1 vssd1 vccd1 vccd1 sky130_fd_sc_hd__decap_4
XFILLER_13_166 vssd1 vssd1 vccd1 vccd1 sky130_fd_sc_hd__fill_2
XFILLER_5_398 vssd1 vssd1 vccd1 vccd1 sky130_fd_sc_hd__decap_6
XFILLER_24_409 vssd1 vssd1 vccd1 vccd1 sky130_fd_sc_hd__decap_8
XFILLER_17_461 vssd1 vssd1 vccd1 vccd1 sky130_ef_sc_hd__decap_12
X_0640__3 clknet_3_1__leaf_clk vssd1 vssd1 vccd1 vccd1 net83 sky130_fd_sc_hd__inv_2
XFILLER_8_170 vssd1 vssd1 vccd1 vccd1 sky130_fd_sc_hd__decap_4
XFILLER_27_258 vssd1 vssd1 vccd1 vccd1 sky130_fd_sc_hd__decap_8
XFILLER_27_225 vssd1 vssd1 vccd1 vccd1 sky130_fd_sc_hd__decap_8
XFILLER_27_214 vssd1 vssd1 vccd1 vccd1 sky130_fd_sc_hd__decap_8
XFILLER_12_65 vssd1 vssd1 vccd1 vccd1 sky130_fd_sc_hd__decap_4
XFILLER_18_258 vssd1 vssd1 vccd1 vccd1 sky130_fd_sc_hd__decap_4
XFILLER_18_225 vssd1 vssd1 vccd1 vccd1 sky130_fd_sc_hd__decap_4
X_0770_ _0369_ vssd1 vssd1 vccd1 vccd1 _0096_ sky130_fd_sc_hd__clkbuf_1
XFILLER_17_291 vssd1 vssd1 vccd1 vccd1 sky130_fd_sc_hd__decap_8
XFILLER_20_445 vssd1 vssd1 vccd1 vccd1 sky130_ef_sc_hd__decap_12
X_0968_ clknet_3_4__leaf_clk _0125_ _0055_ vssd1 vssd1 vccd1 vccd1 net41 sky130_fd_sc_hd__dfrtp_4
X_0899_ clknet_3_6__leaf_clk _0076_ vssd1 vssd1 vccd1 vccd1 aio_input_shift\[4\] sky130_fd_sc_hd__dfxtp_1
XFILLER_7_427 vssd1 vssd1 vccd1 vccd1 sky130_fd_sc_hd__fill_2
XFILLER_7_449 vssd1 vssd1 vccd1 vccd1 sky130_fd_sc_hd__fill_2
XFILLER_11_445 vssd1 vssd1 vccd1 vccd1 sky130_fd_sc_hd__decap_3
XFILLER_2_121 vssd1 vssd1 vccd1 vccd1 sky130_ef_sc_hd__decap_12
XFILLER_0_57 vssd1 vssd1 vccd1 vccd1 sky130_fd_sc_hd__fill_2
X_0822_ ws_cnt\[5\] _0397_ _0386_ vssd1 vssd1 vccd1 vccd1 _0401_ sky130_fd_sc_hd__o21ai_1
XFILLER_9_55 vssd1 vssd1 vccd1 vccd1 sky130_fd_sc_hd__fill_1
XFILLER_9_88 vssd1 vssd1 vccd1 vccd1 sky130_fd_sc_hd__decap_4
XFILLER_6_471 vssd1 vssd1 vccd1 vccd1 sky130_fd_sc_hd__fill_2
X_0684_ _0305_ vssd1 vssd1 vccd1 vccd1 _0308_ sky130_fd_sc_hd__inv_2
X_0753_ proj_cnt\[7\] proj_cnt\[6\] _0351_ vssd1 vssd1 vccd1 vccd1 _0358_ sky130_fd_sc_hd__and3_1
XFILLER_20_253 vssd1 vssd1 vccd1 vccd1 sky130_fd_sc_hd__decap_4
XFILLER_20_220 vssd1 vssd1 vccd1 vccd1 sky130_fd_sc_hd__decap_3
XFILLER_18_64 vssd1 vssd1 vccd1 vccd1 sky130_fd_sc_hd__decap_6
XFILLER_3_441 vssd1 vssd1 vccd1 vccd1 sky130_fd_sc_hd__decap_6
XFILLER_7_279 vssd1 vssd1 vccd1 vccd1 sky130_fd_sc_hd__fill_1
XFILLER_19_375 vssd1 vssd1 vccd1 vccd1 sky130_fd_sc_hd__decap_3
X_0805_ ws_cnt\[0\] ws_cnt\[1\] vssd1 vssd1 vccd1 vccd1 _0388_ sky130_fd_sc_hd__or2_1
X_0667_ _0294_ vssd1 vssd1 vccd1 vccd1 _0299_ sky130_fd_sc_hd__clkinv_2
XFILLER_6_290 vssd1 vssd1 vccd1 vccd1 sky130_fd_sc_hd__decap_8
X_0598_ state\[0\] vssd1 vssd1 vccd1 vccd1 _0262_ sky130_fd_sc_hd__inv_2
X_0736_ proj_cnt\[3\] vssd1 vssd1 vccd1 vccd1 _0345_ sky130_fd_sc_hd__inv_2
XFILLER_20_76 vssd1 vssd1 vccd1 vccd1 sky130_fd_sc_hd__decap_8
XFILLER_4_238 vssd1 vssd1 vccd1 vccd1 sky130_fd_sc_hd__decap_6
X_0521_ _0205_ vssd1 vssd1 vccd1 vccd1 _0008_ sky130_fd_sc_hd__clkbuf_1
X_0452_ _0143_ _0149_ _0154_ vssd1 vssd1 vccd1 vccd1 _0155_ sky130_fd_sc_hd__and3_1
XFILLER_6_56 vssd1 vssd1 vccd1 vccd1 sky130_ef_sc_hd__decap_12
XFILLER_26_109 vssd1 vssd1 vccd1 vccd1 sky130_ef_sc_hd__decap_12
XFILLER_13_3 vssd1 vssd1 vccd1 vccd1 sky130_ef_sc_hd__decap_12
XFILLER_19_194 vssd1 vssd1 vccd1 vccd1 sky130_fd_sc_hd__decap_4
X_0719_ _0332_ vssd1 vssd1 vccd1 vccd1 _0082_ sky130_fd_sc_hd__clkbuf_1
XFILLER_13_337 vssd1 vssd1 vccd1 vccd1 sky130_fd_sc_hd__decap_3
Xoutput31 net31 vssd1 vssd1 vccd1 vccd1 outputs[3] sky130_fd_sc_hd__buf_12
XFILLER_16_153 vssd1 vssd1 vccd1 vccd1 sky130_ef_sc_hd__decap_12
XFILLER_16_197 vssd1 vssd1 vccd1 vccd1 sky130_fd_sc_hd__decap_8
XTAP_101 vssd1 vccd1 sky130_fd_sc_hd__tapvpwrvgnd_1
XTAP_112 vssd1 vccd1 sky130_fd_sc_hd__tapvpwrvgnd_1
X_0435_ _0134_ _0136_ _0140_ vssd1 vssd1 vccd1 vccd1 _0141_ sky130_fd_sc_hd__nand3b_1
XTAP_123 vssd1 vccd1 sky130_fd_sc_hd__tapvpwrvgnd_1
XTAP_134 vssd1 vccd1 sky130_fd_sc_hd__tapvpwrvgnd_1
XTAP_145 vssd1 vccd1 sky130_fd_sc_hd__tapvpwrvgnd_1
XTAP_156 vssd1 vccd1 sky130_fd_sc_hd__tapvpwrvgnd_1
XTAP_167 vssd1 vccd1 sky130_fd_sc_hd__tapvpwrvgnd_1
XTAP_178 vssd1 vccd1 sky130_fd_sc_hd__tapvpwrvgnd_1
XTAP_189 vssd1 vccd1 sky130_fd_sc_hd__tapvpwrvgnd_1
X_0504_ _0186_ _0187_ _0188_ _0189_ vssd1 vssd1 vccd1 vccd1 _0190_ sky130_fd_sc_hd__a22o_1
XFILLER_27_429 vssd1 vssd1 vccd1 vccd1 sky130_fd_sc_hd__fill_1
XFILLER_10_307 vssd1 vssd1 vccd1 vccd1 sky130_fd_sc_hd__fill_1
XFILLER_26_97 vssd1 vssd1 vccd1 vccd1 sky130_ef_sc_hd__decap_12
XFILLER_26_53 vssd1 vssd1 vccd1 vccd1 sky130_fd_sc_hd__decap_8
XFILLER_9_105 vssd1 vssd1 vccd1 vccd1 sky130_fd_sc_hd__fill_2
Xclkbuf_3_6__f_clk clknet_0_clk vssd1 vssd1 vccd1 vccd1 clknet_3_6__leaf_clk sky130_fd_sc_hd__clkbuf_16
XFILLER_5_333 vssd1 vssd1 vccd1 vccd1 sky130_fd_sc_hd__decap_3
XFILLER_3_57 vssd1 vssd1 vccd1 vccd1 sky130_ef_sc_hd__decap_12
XFILLER_27_237 vssd1 vssd1 vccd1 vccd1 sky130_ef_sc_hd__decap_12
XFILLER_14_421 vssd1 vssd1 vccd1 vccd1 sky130_fd_sc_hd__fill_2
XFILLER_5_163 vssd1 vssd1 vccd1 vccd1 sky130_fd_sc_hd__decap_4
XFILLER_1_391 vssd1 vssd1 vccd1 vccd1 sky130_fd_sc_hd__fill_1
XFILLER_17_281 vssd1 vssd1 vccd1 vccd1 sky130_fd_sc_hd__decap_4
XFILLER_20_457 vssd1 vssd1 vccd1 vccd1 sky130_ef_sc_hd__decap_12
X_0967_ clknet_3_4__leaf_clk _0124_ _0054_ vssd1 vssd1 vccd1 vccd1 clk_divider_I.counter\[7\]
+ sky130_fd_sc_hd__dfrtp_1
X_0898_ clknet_3_7__leaf_clk _0075_ vssd1 vssd1 vccd1 vccd1 aio_input_shift\[3\] sky130_fd_sc_hd__dfxtp_1
XFILLER_11_424 vssd1 vssd1 vccd1 vccd1 sky130_fd_sc_hd__decap_4
XFILLER_15_229 vssd1 vssd1 vccd1 vccd1 sky130_fd_sc_hd__fill_1
XFILLER_2_188 vssd1 vssd1 vccd1 vccd1 sky130_fd_sc_hd__decap_8
XFILLER_2_133 vssd1 vssd1 vccd1 vccd1 sky130_fd_sc_hd__fill_2
XFILLER_9_12 vssd1 vssd1 vccd1 vccd1 sky130_fd_sc_hd__decap_4
X_0821_ ws_cnt\[4\] ws_cnt\[5\] _0394_ vssd1 vssd1 vccd1 vccd1 _0400_ sky130_fd_sc_hd__and3_1
X_0752_ _0357_ vssd1 vssd1 vccd1 vccd1 _0090_ sky130_fd_sc_hd__clkbuf_1
XFILLER_14_251 vssd1 vssd1 vccd1 vccd1 sky130_fd_sc_hd__fill_1
X_0683_ _0307_ vssd1 vssd1 vccd1 vccd1 _0042_ sky130_fd_sc_hd__clkbuf_1
XFILLER_20_232 vssd1 vssd1 vccd1 vccd1 sky130_fd_sc_hd__decap_8
XFILLER_7_225 vssd1 vssd1 vccd1 vccd1 sky130_ef_sc_hd__decap_12
XFILLER_11_221 vssd1 vssd1 vccd1 vccd1 sky130_fd_sc_hd__decap_3
XFILLER_19_398 vssd1 vssd1 vccd1 vccd1 sky130_fd_sc_hd__decap_6
X_0804_ _0387_ vssd1 vssd1 vccd1 vccd1 _0109_ sky130_fd_sc_hd__clkbuf_1
X_0735_ _0344_ vssd1 vssd1 vccd1 vccd1 _0086_ sky130_fd_sc_hd__clkbuf_1
X_0597_ _0261_ vssd1 vssd1 vccd1 vccd1 _0006_ sky130_fd_sc_hd__clkbuf_1
X_0666_ _0298_ vssd1 vssd1 vccd1 vccd1 _0034_ sky130_fd_sc_hd__clkbuf_1
XFILLER_25_335 vssd1 vssd1 vccd1 vccd1 sky130_fd_sc_hd__fill_1
XFILLER_0_412 vssd1 vssd1 vccd1 vccd1 sky130_fd_sc_hd__decap_8
X_0520_ state\[1\] _0203_ state\[13\] vssd1 vssd1 vccd1 vccd1 _0205_ sky130_fd_sc_hd__a21o_1
XFILLER_3_272 vssd1 vssd1 vccd1 vccd1 sky130_fd_sc_hd__decap_8
X_0451_ clk_divider_I.counter\[5\] _0148_ vssd1 vssd1 vccd1 vccd1 _0154_ sky130_fd_sc_hd__or2_1
XFILLER_22_316 vssd1 vssd1 vccd1 vccd1 sky130_fd_sc_hd__decap_8
X_0718_ bit_cnt\[2\] _0328_ _0331_ vssd1 vssd1 vccd1 vccd1 _0332_ sky130_fd_sc_hd__o21a_1
X_0649_ _0289_ vssd1 vssd1 vccd1 vccd1 _0026_ sky130_fd_sc_hd__clkbuf_1
XFILLER_15_55 vssd1 vssd1 vccd1 vccd1 sky130_fd_sc_hd__fill_1
XFILLER_21_393 vssd1 vssd1 vccd1 vccd1 sky130_fd_sc_hd__fill_2
XFILLER_0_253 vssd1 vssd1 vccd1 vccd1 sky130_fd_sc_hd__fill_2
Xoutput32 net32 vssd1 vssd1 vccd1 vccd1 outputs[4] sky130_fd_sc_hd__buf_12
XFILLER_16_165 vssd1 vssd1 vccd1 vccd1 sky130_fd_sc_hd__fill_2
XFILLER_8_397 vssd1 vssd1 vccd1 vccd1 sky130_ef_sc_hd__decap_12
X_0503_ ws_cnt\[6\] vssd1 vssd1 vccd1 vccd1 _0189_ sky130_fd_sc_hd__inv_2
XTAP_102 vssd1 vccd1 sky130_fd_sc_hd__tapvpwrvgnd_1
XTAP_113 vssd1 vccd1 sky130_fd_sc_hd__tapvpwrvgnd_1
X_0434_ _0129_ clk_divider_I.compare\[6\] _0138_ _0139_ vssd1 vssd1 vccd1 vccd1 _0140_
+ sky130_fd_sc_hd__o211a_1
XTAP_124 vssd1 vccd1 sky130_fd_sc_hd__tapvpwrvgnd_1
XTAP_135 vssd1 vccd1 sky130_fd_sc_hd__tapvpwrvgnd_1
XTAP_146 vssd1 vccd1 sky130_fd_sc_hd__tapvpwrvgnd_1
XTAP_157 vssd1 vccd1 sky130_fd_sc_hd__tapvpwrvgnd_1
XTAP_168 vssd1 vccd1 sky130_fd_sc_hd__tapvpwrvgnd_1
XTAP_179 vssd1 vccd1 sky130_fd_sc_hd__tapvpwrvgnd_1
XFILLER_27_419 vssd1 vssd1 vccd1 vccd1 sky130_fd_sc_hd__fill_1
XFILLER_22_146 vssd1 vssd1 vccd1 vccd1 sky130_fd_sc_hd__decap_8
XFILLER_7_9 vssd1 vssd1 vccd1 vccd1 sky130_fd_sc_hd__fill_1
XFILLER_26_21 vssd1 vssd1 vccd1 vccd1 sky130_fd_sc_hd__decap_6
XFILLER_26_441 vssd1 vssd1 vccd1 vccd1 sky130_fd_sc_hd__decap_3
XFILLER_13_113 vssd1 vssd1 vccd1 vccd1 sky130_fd_sc_hd__fill_2
XFILLER_13_135 vssd1 vssd1 vccd1 vccd1 sky130_fd_sc_hd__decap_4
XFILLER_5_345 vssd1 vssd1 vccd1 vccd1 sky130_fd_sc_hd__fill_1
XFILLER_5_389 vssd1 vssd1 vccd1 vccd1 sky130_fd_sc_hd__decap_3
XFILLER_3_69 vssd1 vssd1 vccd1 vccd1 sky130_ef_sc_hd__decap_12
XFILLER_3_47 vssd1 vssd1 vccd1 vccd1 sky130_fd_sc_hd__fill_2
XFILLER_8_183 vssd1 vssd1 vccd1 vccd1 sky130_fd_sc_hd__decap_4
XFILLER_8_194 vssd1 vssd1 vccd1 vccd1 sky130_fd_sc_hd__fill_2
XFILLER_27_249 vssd1 vssd1 vccd1 vccd1 sky130_fd_sc_hd__decap_3
XFILLER_12_78 vssd1 vssd1 vccd1 vccd1 sky130_fd_sc_hd__decap_6
XFILLER_5_131 vssd1 vssd1 vccd1 vccd1 sky130_fd_sc_hd__decap_4
XFILLER_5_197 vssd1 vssd1 vccd1 vccd1 sky130_fd_sc_hd__decap_6
XFILLER_17_260 vssd1 vssd1 vccd1 vccd1 sky130_ef_sc_hd__decap_12
X_0897_ clknet_3_7__leaf_clk _0074_ vssd1 vssd1 vccd1 vccd1 aio_input_shift\[2\] sky130_fd_sc_hd__dfxtp_1
XFILLER_20_469 vssd1 vssd1 vccd1 vccd1 sky130_fd_sc_hd__decap_4
X_0966_ clknet_3_4__leaf_clk _0123_ _0053_ vssd1 vssd1 vccd1 vccd1 clk_divider_I.counter\[6\]
+ sky130_fd_sc_hd__dfrtp_1
XFILLER_23_274 vssd1 vssd1 vccd1 vccd1 sky130_fd_sc_hd__decap_6
XFILLER_23_55 vssd1 vssd1 vccd1 vccd1 sky130_fd_sc_hd__fill_1
XFILLER_11_436 vssd1 vssd1 vccd1 vccd1 sky130_fd_sc_hd__decap_4
XFILLER_11_458 vssd1 vssd1 vccd1 vccd1 sky130_fd_sc_hd__decap_8
XFILLER_3_3 vssd1 vssd1 vccd1 vccd1 sky130_ef_sc_hd__decap_12
XFILLER_2_156 vssd1 vssd1 vccd1 vccd1 sky130_fd_sc_hd__decap_4
XFILLER_2_145 vssd1 vssd1 vccd1 vccd1 sky130_fd_sc_hd__fill_1
XFILLER_0_15 vssd1 vssd1 vccd1 vccd1 sky130_ef_sc_hd__decap_12
X_0820_ _0399_ vssd1 vssd1 vccd1 vccd1 _0113_ sky130_fd_sc_hd__clkbuf_1
XFILLER_9_57 vssd1 vssd1 vccd1 vccd1 sky130_fd_sc_hd__decap_8
XFILLER_9_68 vssd1 vssd1 vccd1 vccd1 sky130_fd_sc_hd__decap_4
X_0751_ _0355_ _0356_ vssd1 vssd1 vccd1 vccd1 _0357_ sky130_fd_sc_hd__nor2_1
X_0682_ _0305_ vssd1 vssd1 vccd1 vccd1 _0307_ sky130_fd_sc_hd__inv_2
X_0949_ clknet_3_3__leaf_clk _0110_ vssd1 vssd1 vccd1 vccd1 ws_cnt\[1\] sky130_fd_sc_hd__dfxtp_1
XFILLER_18_44 vssd1 vssd1 vccd1 vccd1 sky130_fd_sc_hd__decap_4
XFILLER_18_99 vssd1 vssd1 vccd1 vccd1 sky130_fd_sc_hd__decap_4
XFILLER_7_215 vssd1 vssd1 vccd1 vccd1 sky130_fd_sc_hd__decap_8
XFILLER_7_237 vssd1 vssd1 vccd1 vccd1 sky130_fd_sc_hd__fill_2
XFILLER_11_266 vssd1 vssd1 vccd1 vccd1 sky130_fd_sc_hd__decap_6
XFILLER_19_344 vssd1 vssd1 vccd1 vccd1 sky130_fd_sc_hd__decap_4
XFILLER_19_333 vssd1 vssd1 vccd1 vccd1 sky130_fd_sc_hd__decap_3
X_0803_ _0186_ _0386_ vssd1 vssd1 vccd1 vccd1 _0387_ sky130_fd_sc_hd__and2_1
X_0734_ state\[0\] _0342_ _0343_ vssd1 vssd1 vccd1 vccd1 _0344_ sky130_fd_sc_hd__nor3b_1
X_0665_ _0294_ vssd1 vssd1 vccd1 vccd1 _0298_ sky130_fd_sc_hd__clkinv_2
X_0596_ state\[6\] _0206_ vssd1 vssd1 vccd1 vccd1 _0261_ sky130_fd_sc_hd__and2_1
XFILLER_20_67 vssd1 vssd1 vccd1 vccd1 sky130_fd_sc_hd__decap_4
XFILLER_20_56 vssd1 vssd1 vccd1 vccd1 sky130_fd_sc_hd__decap_4
XFILLER_0_446 vssd1 vssd1 vccd1 vccd1 sky130_fd_sc_hd__fill_2
XFILLER_16_358 vssd1 vssd1 vccd1 vccd1 sky130_fd_sc_hd__decap_6
XFILLER_6_47 vssd1 vssd1 vccd1 vccd1 sky130_fd_sc_hd__decap_4
XFILLER_3_295 vssd1 vssd1 vccd1 vccd1 sky130_fd_sc_hd__fill_1
X_0450_ _0153_ vssd1 vssd1 vccd1 vccd1 _0123_ sky130_fd_sc_hd__clkbuf_1
XFILLER_22_306 vssd1 vssd1 vccd1 vccd1 sky130_fd_sc_hd__fill_2
XFILLER_19_152 vssd1 vssd1 vccd1 vccd1 sky130_ef_sc_hd__decap_12
XFILLER_15_391 vssd1 vssd1 vccd1 vccd1 sky130_fd_sc_hd__fill_1
X_0717_ state\[0\] _0330_ vssd1 vssd1 vccd1 vccd1 _0331_ sky130_fd_sc_hd__nor2_1
X_0648_ _0272_ vssd1 vssd1 vccd1 vccd1 _0289_ sky130_fd_sc_hd__clkinv_2
X_0579_ _0250_ vssd1 vssd1 vccd1 vccd1 net33 sky130_fd_sc_hd__clkbuf_1
XFILLER_25_111 vssd1 vssd1 vccd1 vccd1 sky130_fd_sc_hd__fill_1
Xoutput33 net33 vssd1 vssd1 vccd1 vccd1 outputs[5] sky130_fd_sc_hd__buf_12
XFILLER_0_210 vssd1 vssd1 vccd1 vccd1 sky130_fd_sc_hd__decap_3
XFILLER_16_133 vssd1 vssd1 vccd1 vccd1 sky130_fd_sc_hd__fill_1
XFILLER_8_354 vssd1 vssd1 vccd1 vccd1 sky130_fd_sc_hd__decap_3
XTAP_103 vssd1 vccd1 sky130_fd_sc_hd__tapvpwrvgnd_1
XTAP_114 vssd1 vccd1 sky130_fd_sc_hd__tapvpwrvgnd_1
XFILLER_8_365 vssd1 vssd1 vccd1 vccd1 sky130_fd_sc_hd__decap_6
X_0502_ ws_cfg\[7\] ws_cfg\[6\] _0179_ vssd1 vssd1 vccd1 vccd1 _0188_ sky130_fd_sc_hd__mux2_1
X_0433_ clk_divider_I.counter\[4\] _0137_ clk_divider_I.compare\[5\] _0128_ vssd1
+ vssd1 vccd1 vccd1 _0139_ sky130_fd_sc_hd__o2bb2a_1
XTAP_125 vssd1 vccd1 sky130_fd_sc_hd__tapvpwrvgnd_1
XTAP_136 vssd1 vccd1 sky130_fd_sc_hd__tapvpwrvgnd_1
XTAP_147 vssd1 vccd1 sky130_fd_sc_hd__tapvpwrvgnd_1
XTAP_158 vssd1 vccd1 sky130_fd_sc_hd__tapvpwrvgnd_1
XTAP_169 vssd1 vccd1 sky130_fd_sc_hd__tapvpwrvgnd_1
XFILLER_22_136 vssd1 vssd1 vccd1 vccd1 sky130_fd_sc_hd__decap_4
XFILLER_10_309 vssd1 vssd1 vccd1 vccd1 sky130_fd_sc_hd__decap_8
XFILLER_9_118 vssd1 vssd1 vccd1 vccd1 sky130_fd_sc_hd__decap_4
XFILLER_13_169 vssd1 vssd1 vccd1 vccd1 sky130_fd_sc_hd__fill_2
XFILLER_5_313 vssd1 vssd1 vccd1 vccd1 sky130_ef_sc_hd__decap_12
XFILLER_3_15 vssd1 vssd1 vccd1 vccd1 sky130_ef_sc_hd__decap_12
XFILLER_12_180 vssd1 vssd1 vccd1 vccd1 sky130_fd_sc_hd__decap_4
XFILLER_18_217 vssd1 vssd1 vccd1 vccd1 sky130_fd_sc_hd__decap_4
XFILLER_14_412 vssd1 vssd1 vccd1 vccd1 sky130_fd_sc_hd__fill_1
XFILLER_24_209 vssd1 vssd1 vccd1 vccd1 sky130_ef_sc_hd__decap_12
XFILLER_1_393 vssd1 vssd1 vccd1 vccd1 sky130_ef_sc_hd__decap_12
XFILLER_17_272 vssd1 vssd1 vccd1 vccd1 sky130_fd_sc_hd__decap_3
X_0896_ clknet_3_7__leaf_clk _0073_ vssd1 vssd1 vccd1 vccd1 aio_input_shift\[1\] sky130_fd_sc_hd__dfxtp_1
X_0965_ clknet_3_1__leaf_clk _0122_ _0052_ vssd1 vssd1 vccd1 vccd1 clk_divider_I.counter\[5\]
+ sky130_fd_sc_hd__dfrtp_1
XFILLER_15_209 vssd1 vssd1 vccd1 vccd1 sky130_fd_sc_hd__decap_4
XFILLER_23_297 vssd1 vssd1 vccd1 vccd1 sky130_fd_sc_hd__fill_1
XFILLER_0_27 vssd1 vssd1 vccd1 vccd1 sky130_fd_sc_hd__fill_1
XFILLER_9_36 vssd1 vssd1 vccd1 vccd1 sky130_fd_sc_hd__decap_4
XFILLER_14_253 vssd1 vssd1 vccd1 vccd1 sky130_ef_sc_hd__decap_12
XFILLER_14_275 vssd1 vssd1 vccd1 vccd1 sky130_fd_sc_hd__decap_4
XFILLER_14_286 vssd1 vssd1 vccd1 vccd1 sky130_fd_sc_hd__fill_1
X_0681_ _0306_ vssd1 vssd1 vccd1 vccd1 _0041_ sky130_fd_sc_hd__clkbuf_1
X_0750_ proj_cnt\[6\] _0229_ _0267_ _0351_ state\[0\] vssd1 vssd1 vccd1 vccd1 _0356_
+ sky130_fd_sc_hd__a41o_1
X_0948_ clknet_3_3__leaf_clk _0109_ vssd1 vssd1 vccd1 vccd1 ws_cnt\[0\] sky130_fd_sc_hd__dfxtp_1
X_0879_ clknet_3_7__leaf_clk _0011_ _0027_ vssd1 vssd1 vccd1 vccd1 state\[4\] sky130_fd_sc_hd__dfrtp_1
XFILLER_18_34 vssd1 vssd1 vccd1 vccd1 sky130_fd_sc_hd__decap_4
XFILLER_11_278 vssd1 vssd1 vccd1 vccd1 sky130_fd_sc_hd__fill_2
XFILLER_19_389 vssd1 vssd1 vccd1 vccd1 sky130_fd_sc_hd__decap_3
XFILLER_19_323 vssd1 vssd1 vccd1 vccd1 sky130_fd_sc_hd__fill_1
XFILLER_19_312 vssd1 vssd1 vccd1 vccd1 sky130_fd_sc_hd__decap_4
X_0802_ state\[8\] _0385_ _0203_ vssd1 vssd1 vccd1 vccd1 _0386_ sky130_fd_sc_hd__o21a_2
X_0664_ _0297_ vssd1 vssd1 vccd1 vccd1 _0033_ sky130_fd_sc_hd__clkbuf_1
X_0733_ _0207_ _0323_ _0339_ vssd1 vssd1 vccd1 vccd1 _0343_ sky130_fd_sc_hd__or3b_1
X_0595_ _0260_ vssd1 vssd1 vccd1 vccd1 net39 sky130_fd_sc_hd__clkbuf_1
XFILLER_25_337 vssd1 vssd1 vccd1 vccd1 sky130_ef_sc_hd__decap_12
XFILLER_1_81 vssd1 vssd1 vccd1 vccd1 sky130_ef_sc_hd__decap_12
XFILLER_4_219 vssd1 vssd1 vccd1 vccd1 sky130_fd_sc_hd__decap_4
XFILLER_19_164 vssd1 vssd1 vccd1 vccd1 sky130_fd_sc_hd__decap_4
X_0578_ _0242_ aio_output_reg\[5\] vssd1 vssd1 vccd1 vccd1 _0250_ sky130_fd_sc_hd__and2_1
X_0647_ _0288_ vssd1 vssd1 vccd1 vccd1 _0025_ sky130_fd_sc_hd__clkbuf_1
X_0716_ bit_cnt\[2\] _0328_ vssd1 vssd1 vccd1 vccd1 _0330_ sky130_fd_sc_hd__and2_1
XFILLER_25_167 vssd1 vssd1 vccd1 vccd1 sky130_fd_sc_hd__fill_1
XFILLER_15_57 vssd1 vssd1 vccd1 vccd1 sky130_ef_sc_hd__decap_12
Xoutput34 net34 vssd1 vssd1 vccd1 vccd1 outputs[6] sky130_fd_sc_hd__buf_12
XFILLER_0_266 vssd1 vssd1 vccd1 vccd1 sky130_fd_sc_hd__decap_3
XFILLER_0_233 vssd1 vssd1 vccd1 vccd1 sky130_fd_sc_hd__fill_1
XFILLER_12_362 vssd1 vssd1 vccd1 vccd1 sky130_fd_sc_hd__fill_2
XTAP_104 vssd1 vccd1 sky130_fd_sc_hd__tapvpwrvgnd_1
X_0432_ clk_divider_I.counter\[4\] _0137_ clk_divider_I.compare\[7\] _0127_ vssd1
+ vssd1 vccd1 vccd1 _0138_ sky130_fd_sc_hd__o22a_1
XTAP_115 vssd1 vccd1 sky130_fd_sc_hd__tapvpwrvgnd_1
XTAP_126 vssd1 vccd1 sky130_fd_sc_hd__tapvpwrvgnd_1
XTAP_137 vssd1 vccd1 sky130_fd_sc_hd__tapvpwrvgnd_1
XTAP_148 vssd1 vccd1 sky130_fd_sc_hd__tapvpwrvgnd_1
X_0501_ ws_cfg\[1\] ws_cfg\[0\] state\[3\] vssd1 vssd1 vccd1 vccd1 _0187_ sky130_fd_sc_hd__mux2_1
XFILLER_11_3 vssd1 vssd1 vccd1 vccd1 sky130_fd_sc_hd__decap_8
XTAP_159 vssd1 vccd1 sky130_fd_sc_hd__tapvpwrvgnd_1
XFILLER_7_91 vssd1 vssd1 vccd1 vccd1 sky130_fd_sc_hd__decap_4
XFILLER_26_421 vssd1 vssd1 vccd1 vccd1 sky130_ef_sc_hd__decap_12
XFILLER_26_67 vssd1 vssd1 vccd1 vccd1 sky130_ef_sc_hd__decap_12
XFILLER_21_181 vssd1 vssd1 vccd1 vccd1 sky130_fd_sc_hd__fill_1
XFILLER_3_27 vssd1 vssd1 vccd1 vccd1 sky130_ef_sc_hd__decap_12
XFILLER_5_325 vssd1 vssd1 vccd1 vccd1 sky130_fd_sc_hd__decap_8
XFILLER_5_369 vssd1 vssd1 vccd1 vccd1 sky130_fd_sc_hd__decap_4
XFILLER_17_421 vssd1 vssd1 vccd1 vccd1 sky130_fd_sc_hd__decap_8
XFILLER_8_141 vssd1 vssd1 vccd1 vccd1 sky130_fd_sc_hd__fill_2
XFILLER_23_446 vssd1 vssd1 vccd1 vccd1 sky130_fd_sc_hd__fill_2
XFILLER_2_306 vssd1 vssd1 vccd1 vccd1 sky130_fd_sc_hd__fill_2
XFILLER_14_457 vssd1 vssd1 vccd1 vccd1 sky130_ef_sc_hd__decap_12