* NGSPICE file created from user_project_wrapper.ext - technology: sky130A

* Black-box entry subcircuit for tholin_avalonsemi_tbb1143 abstract view
.subckt tholin_avalonsemi_tbb1143 io_in[0] io_in[1] io_in[2] io_in[3] io_in[4] io_in[5]
+ io_in[6] io_in[7] io_out[0] io_out[1] io_out[2] io_out[3] io_out[4] io_out[5] io_out[6]
+ io_out[7] vccd1 vssd1
.ends

* Black-box entry subcircuit for scanchain abstract view
.subckt scanchain clk_in clk_out data_in data_out latch_enable_in latch_enable_out
+ module_data_in[0] module_data_in[1] module_data_in[2] module_data_in[3] module_data_in[4]
+ module_data_in[5] module_data_in[6] module_data_in[7] module_data_out[0] module_data_out[1]
+ module_data_out[2] module_data_out[3] module_data_out[4] module_data_out[5] module_data_out[6]
+ module_data_out[7] scan_select_in scan_select_out vccd1 vssd1
.ends

* Black-box entry subcircuit for user_module_349790606404354643 abstract view
.subckt user_module_349790606404354643 io_in[0] io_in[1] io_in[2] io_in[3] io_in[4]
+ io_in[5] io_in[6] io_in[7] io_out[0] io_out[1] io_out[2] io_out[3] io_out[4] io_out[5]
+ io_out[6] io_out[7] vccd1 vssd1
.ends

* Black-box entry subcircuit for swalense_top abstract view
.subckt swalense_top io_in[0] io_in[1] io_in[2] io_in[3] io_in[4] io_in[5] io_in[6]
+ io_in[7] io_out[0] io_out[1] io_out[2] io_out[3] io_out[4] io_out[5] io_out[6] io_out[7]
+ vccd1 vssd1
.ends

* Black-box entry subcircuit for tucanae47_gray_ctr6 abstract view
.subckt tucanae47_gray_ctr6 io_in[0] io_in[1] io_in[2] io_in[3] io_in[4] io_in[5]
+ io_in[6] io_in[7] io_out[0] io_out[1] io_out[2] io_out[3] io_out[4] io_out[5] io_out[6]
+ io_out[7] vccd1 vssd1
.ends

* Black-box entry subcircuit for user_module_346916357828248146 abstract view
.subckt user_module_346916357828248146 io_in[0] io_in[1] io_in[2] io_in[3] io_in[4]
+ io_in[5] io_in[6] io_in[7] io_out[0] io_out[1] io_out[2] io_out[3] io_out[4] io_out[5]
+ io_out[6] io_out[7] vccd1 vssd1
.ends

* Black-box entry subcircuit for diferential_muxpga abstract view
.subckt diferential_muxpga io_in[0] io_in[1] io_in[2] io_in[3] io_in[4] io_in[5] io_in[6]
+ io_in[7] io_out[0] io_out[1] io_out[2] io_out[3] io_out[4] io_out[5] io_out[6] io_out[7]
+ vccd1 vssd1
.ends

* Black-box entry subcircuit for diferential_rvb3 abstract view
.subckt diferential_rvb3 io_in[0] io_in[1] io_in[2] io_in[3] io_in[4] io_in[5] io_in[6]
+ io_in[7] io_out[0] io_out[1] io_out[2] io_out[3] io_out[4] io_out[5] io_out[6] io_out[7]
+ vccd1 vssd1
.ends

* Black-box entry subcircuit for user_module_360295047631610881 abstract view
.subckt user_module_360295047631610881 io_in[0] io_in[1] io_in[2] io_in[3] io_in[4]
+ io_in[5] io_in[6] io_in[7] io_out[0] io_out[1] io_out[2] io_out[3] io_out[4] io_out[5]
+ io_out[6] io_out[7] vccd1 vssd1
.ends

* Black-box entry subcircuit for user_module_347140425276981843 abstract view
.subckt user_module_347140425276981843 io_in[0] io_in[1] io_in[2] io_in[3] io_in[4]
+ io_in[5] io_in[6] io_in[7] io_out[0] io_out[1] io_out[2] io_out[3] io_out[4] io_out[5]
+ io_out[6] io_out[7] vccd1 vssd1
.ends

* Black-box entry subcircuit for secretFile abstract view
.subckt secretFile io_in[0] io_in[1] io_in[2] io_in[3] io_in[4] io_in[5] io_in[6]
+ io_in[7] io_out[0] io_out[1] io_out[2] io_out[3] io_out[4] io_out[5] io_out[6] io_out[7]
+ vccd1 vssd1
.ends

* Black-box entry subcircuit for rolfmobile99_alu_fsm_top abstract view
.subckt rolfmobile99_alu_fsm_top io_in[0] io_in[1] io_in[2] io_in[3] io_in[4] io_in[5]
+ io_in[6] io_in[7] io_out[0] io_out[1] io_out[2] io_out[3] io_out[4] io_out[5] io_out[6]
+ io_out[7] vccd1 vssd1
.ends

* Black-box entry subcircuit for Asma_Mohsin_conv_enc_core abstract view
.subckt Asma_Mohsin_conv_enc_core io_in[0] io_in[1] io_in[2] io_in[3] io_in[4] io_in[5]
+ io_in[6] io_in[7] io_out[0] io_out[1] io_out[2] io_out[3] io_out[4] io_out[5] io_out[6]
+ io_out[7] vccd1 vssd1
.ends

* Black-box entry subcircuit for user_module_348260124451668562 abstract view
.subckt user_module_348260124451668562 io_in[0] io_in[1] io_in[2] io_in[3] io_in[4]
+ io_in[5] io_in[6] io_in[7] io_out[0] io_out[1] io_out[2] io_out[3] io_out[4] io_out[5]
+ io_out[6] io_out[7] vccd1 vssd1
.ends

* Black-box entry subcircuit for zoechip abstract view
.subckt zoechip io_in[0] io_in[1] io_in[2] io_in[3] io_in[4] io_in[5] io_in[6] io_in[7]
+ io_out[0] io_out[1] io_out[2] io_out[3] io_out[4] io_out[5] io_out[6] io_out[7]
+ vccd1 vssd1
.ends

* Black-box entry subcircuit for user_module_357106633951414273 abstract view
.subckt user_module_357106633951414273 io_in[0] io_in[1] io_in[2] io_in[3] io_in[4]
+ io_in[5] io_in[6] io_in[7] io_out[0] io_out[1] io_out[2] io_out[3] io_out[4] io_out[5]
+ io_out[6] io_out[7] vccd1 vssd1
.ends

* Black-box entry subcircuit for tiny_fft abstract view
.subckt tiny_fft io_in[0] io_in[1] io_in[2] io_in[3] io_in[4] io_in[5] io_in[6] io_in[7]
+ io_out[0] io_out[1] io_out[2] io_out[3] io_out[4] io_out[5] io_out[6] io_out[7]
+ vccd1 vssd1
.ends

* Black-box entry subcircuit for kiwih_tt_top abstract view
.subckt kiwih_tt_top io_in[0] io_in[1] io_in[2] io_in[3] io_in[4] io_in[5] io_in[6]
+ io_in[7] io_out[0] io_out[1] io_out[2] io_out[3] io_out[4] io_out[5] io_out[6] io_out[7]
+ vccd1 vssd1
.ends

* Black-box entry subcircuit for loxodes_sequencer abstract view
.subckt loxodes_sequencer io_in[0] io_in[1] io_in[2] io_in[3] io_in[4] io_in[5] io_in[6]
+ io_in[7] io_out[0] io_out[1] io_out[2] io_out[3] io_out[4] io_out[5] io_out[6] io_out[7]
+ vccd1 vssd1
.ends

* Black-box entry subcircuit for xyz_peppergray_Potato1_top abstract view
.subckt xyz_peppergray_Potato1_top io_in[0] io_in[1] io_in[2] io_in[3] io_in[4] io_in[5]
+ io_in[6] io_in[7] io_out[0] io_out[1] io_out[2] io_out[3] io_out[4] io_out[5] io_out[6]
+ io_out[7] vccd1 vssd1
.ends

* Black-box entry subcircuit for psychogenic_neptunefixed abstract view
.subckt psychogenic_neptunefixed io_in[0] io_in[1] io_in[2] io_in[3] io_in[4] io_in[5]
+ io_in[6] io_in[7] io_out[0] io_out[1] io_out[2] io_out[3] io_out[4] io_out[5] io_out[6]
+ io_out[7] vccd1 vssd1
.ends

* Black-box entry subcircuit for morningjava_top abstract view
.subckt morningjava_top io_in[0] io_in[1] io_in[2] io_in[3] io_in[4] io_in[5] io_in[6]
+ io_in[7] io_out[0] io_out[1] io_out[2] io_out[3] io_out[4] io_out[5] io_out[6] io_out[7]
+ vccd1 vssd1
.ends

* Black-box entry subcircuit for option23 abstract view
.subckt option23 io_in[0] io_in[1] io_in[2] io_in[3] io_in[4] io_in[5] io_in[6] io_in[7]
+ io_out[0] io_out[1] io_out[2] io_out[3] io_out[4] io_out[5] io_out[6] io_out[7]
+ vccd1 vssd1
.ends

* Black-box entry subcircuit for FSM_LAT abstract view
.subckt FSM_LAT io_in[0] io_in[1] io_in[2] io_in[3] io_in[4] io_in[5] io_in[6] io_in[7]
+ io_out[0] io_out[1] io_out[2] io_out[3] io_out[4] io_out[5] io_out[6] io_out[7]
+ vccd1 vssd1
.ends

* Black-box entry subcircuit for hex_sr abstract view
.subckt hex_sr io_in[0] io_in[1] io_in[2] io_in[3] io_in[4] io_in[5] io_in[6] io_in[7]
+ io_out[0] io_out[1] io_out[2] io_out[3] io_out[4] io_out[5] io_out[6] io_out[7]
+ vccd1 vssd1
.ends

* Black-box entry subcircuit for migcorre_pwm abstract view
.subckt migcorre_pwm io_in[0] io_in[1] io_in[2] io_in[3] io_in[4] io_in[5] io_in[6]
+ io_in[7] io_out[0] io_out[1] io_out[2] io_out[3] io_out[4] io_out[5] io_out[6] io_out[7]
+ vccd1 vssd1
.ends

* Black-box entry subcircuit for user_module_341277789473735250 abstract view
.subckt user_module_341277789473735250 io_in[0] io_in[1] io_in[2] io_in[3] io_in[4]
+ io_in[5] io_in[6] io_in[7] io_out[0] io_out[1] io_out[2] io_out[3] io_out[4] io_out[5]
+ io_out[6] io_out[7] vccd1 vssd1
.ends

* Black-box entry subcircuit for yubex_tiny_logic_analyzer abstract view
.subckt yubex_tiny_logic_analyzer io_in[0] io_in[1] io_in[2] io_in[3] io_in[4] io_in[5]
+ io_in[6] io_in[7] io_out[0] io_out[1] io_out[2] io_out[3] io_out[4] io_out[5] io_out[6]
+ io_out[7] vccd1 vssd1
.ends

* Black-box entry subcircuit for user_module_357897381919942657 abstract view
.subckt user_module_357897381919942657 io_in[0] io_in[1] io_in[2] io_in[3] io_in[4]
+ io_in[5] io_in[6] io_in[7] io_out[0] io_out[1] io_out[2] io_out[3] io_out[4] io_out[5]
+ io_out[6] io_out[7] vccd1 vssd1
.ends

* Black-box entry subcircuit for recepsaid_euclidean_algorithm abstract view
.subckt recepsaid_euclidean_algorithm io_in[0] io_in[1] io_in[2] io_in[3] io_in[4]
+ io_in[5] io_in[6] io_in[7] io_out[0] io_out[1] io_out[2] io_out[3] io_out[4] io_out[5]
+ io_out[6] io_out[7] vccd1 vssd1
.ends

* Black-box entry subcircuit for user_module_362371515213982721 abstract view
.subckt user_module_362371515213982721 io_in[0] io_in[1] io_in[2] io_in[3] io_in[4]
+ io_in[5] io_in[6] io_in[7] io_out[0] io_out[1] io_out[2] io_out[3] io_out[4] io_out[5]
+ io_out[6] io_out[7] vccd1 vssd1
.ends

* Black-box entry subcircuit for pwm abstract view
.subckt pwm io_in[0] io_in[1] io_in[2] io_in[3] io_in[4] io_in[5] io_in[6] io_in[7]
+ io_out[0] io_out[1] io_out[2] io_out[3] io_out[4] io_out[5] io_out[6] io_out[7]
+ vccd1 vssd1
.ends

* Black-box entry subcircuit for user_module_354091612057990145 abstract view
.subckt user_module_354091612057990145 io_in[0] io_in[1] io_in[2] io_in[3] io_in[4]
+ io_in[5] io_in[6] io_in[7] io_out[0] io_out[1] io_out[2] io_out[3] io_out[4] io_out[5]
+ io_out[6] io_out[7] vccd1 vssd1
.ends

* Black-box entry subcircuit for user_module_349953952950780498 abstract view
.subckt user_module_349953952950780498 io_in[0] io_in[1] io_in[2] io_in[3] io_in[4]
+ io_in[5] io_in[6] io_in[7] io_out[0] io_out[1] io_out[2] io_out[3] io_out[4] io_out[5]
+ io_out[6] io_out[7] vccd1 vssd1
.ends

* Black-box entry subcircuit for user_module_361728681519813633 abstract view
.subckt user_module_361728681519813633 io_in[0] io_in[1] io_in[2] io_in[3] io_in[4]
+ io_in[5] io_in[6] io_in[7] io_out[0] io_out[1] io_out[2] io_out[3] io_out[4] io_out[5]
+ io_out[6] io_out[7] vccd1 vssd1
.ends

* Black-box entry subcircuit for my_design abstract view
.subckt my_design io_in[0] io_in[1] io_in[2] io_in[3] io_in[4] io_in[5] io_in[6] io_in[7]
+ io_out[0] io_out[1] io_out[2] io_out[3] io_out[4] io_out[5] io_out[6] io_out[7]
+ vccd1 vssd1
.ends

* Black-box entry subcircuit for maheredia_arbiter_game abstract view
.subckt maheredia_arbiter_game io_in[0] io_in[1] io_in[2] io_in[3] io_in[4] io_in[5]
+ io_in[6] io_in[7] io_out[0] io_out[1] io_out[2] io_out[3] io_out[4] io_out[5] io_out[6]
+ io_out[7] vccd1 vssd1
.ends

* Black-box entry subcircuit for user_module_357917324056483841 abstract view
.subckt user_module_357917324056483841 io_in[0] io_in[1] io_in[2] io_in[3] io_in[4]
+ io_in[5] io_in[6] io_in[7] io_out[0] io_out[1] io_out[2] io_out[3] io_out[4] io_out[5]
+ io_out[6] io_out[7] vccd1 vssd1
.ends

* Black-box entry subcircuit for femto_top abstract view
.subckt femto_top io_in[0] io_in[1] io_in[2] io_in[3] io_in[4] io_in[5] io_in[6] io_in[7]
+ io_out[0] io_out[1] io_out[2] io_out[3] io_out[4] io_out[5] io_out[6] io_out[7]
+ vccd1 vssd1
.ends

* Black-box entry subcircuit for user_module_360014965627378689 abstract view
.subckt user_module_360014965627378689 io_in[0] io_in[1] io_in[2] io_in[3] io_in[4]
+ io_in[5] io_in[6] io_in[7] io_out[0] io_out[1] io_out[2] io_out[3] io_out[4] io_out[5]
+ io_out[6] io_out[7] vccd1 vssd1
.ends

* Black-box entry subcircuit for BenAtUvu_combo abstract view
.subckt BenAtUvu_combo io_in[0] io_in[1] io_in[2] io_in[3] io_in[4] io_in[5] io_in[6]
+ io_in[7] io_out[0] io_out[1] io_out[2] io_out[3] io_out[4] io_out[5] io_out[6] io_out[7]
+ vccd1 vssd1
.ends

* Black-box entry subcircuit for browndeer_rv8u abstract view
.subckt browndeer_rv8u io_in[0] io_in[1] io_in[2] io_in[3] io_in[4] io_in[5] io_in[6]
+ io_in[7] io_out[0] io_out[1] io_out[2] io_out[3] io_out[4] io_out[5] io_out[6] io_out[7]
+ vccd1 vssd1
.ends

* Black-box entry subcircuit for moonbase_pdp8 abstract view
.subckt moonbase_pdp8 io_in[0] io_in[1] io_in[2] io_in[3] io_in[4] io_in[5] io_in[6]
+ io_in[7] io_out[0] io_out[1] io_out[2] io_out[3] io_out[4] io_out[5] io_out[6] io_out[7]
+ vccd1 vssd1
.ends

* Black-box entry subcircuit for user_module_359353377078748161 abstract view
.subckt user_module_359353377078748161 io_in[0] io_in[1] io_in[2] io_in[3] io_in[4]
+ io_in[5] io_in[6] io_in[7] io_out[0] io_out[1] io_out[2] io_out[3] io_out[4] io_out[5]
+ io_out[6] io_out[7] vccd1 vssd1
.ends

* Black-box entry subcircuit for moonbase_cpu_4bit abstract view
.subckt moonbase_cpu_4bit io_in[0] io_in[1] io_in[2] io_in[3] io_in[4] io_in[5] io_in[6]
+ io_in[7] io_out[0] io_out[1] io_out[2] io_out[3] io_out[4] io_out[5] io_out[6] io_out[7]
+ vccd1 vssd1
.ends

* Black-box entry subcircuit for user_module_341164910646919762 abstract view
.subckt user_module_341164910646919762 io_in[0] io_in[1] io_in[2] io_in[3] io_in[4]
+ io_in[5] io_in[6] io_in[7] io_out[0] io_out[1] io_out[2] io_out[3] io_out[4] io_out[5]
+ io_out[6] io_out[7] vccd1 vssd1
.ends

* Black-box entry subcircuit for davidsiaw_stackcalc abstract view
.subckt davidsiaw_stackcalc io_in[0] io_in[1] io_in[2] io_in[3] io_in[4] io_in[5]
+ io_in[6] io_in[7] io_out[0] io_out[1] io_out[2] io_out[3] io_out[4] io_out[5] io_out[6]
+ io_out[7] vccd1 vssd1
.ends

* Black-box entry subcircuit for tt2_tholin_multiplier abstract view
.subckt tt2_tholin_multiplier io_in[0] io_in[1] io_in[2] io_in[3] io_in[4] io_in[5]
+ io_in[6] io_in[7] io_out[0] io_out[1] io_out[2] io_out[3] io_out[4] io_out[5] io_out[6]
+ io_out[7] vccd1 vssd1
.ends

* Black-box entry subcircuit for user_module_347894637149553236 abstract view
.subckt user_module_347894637149553236 io_in[0] io_in[1] io_in[2] io_in[3] io_in[4]
+ io_in[5] io_in[6] io_in[7] io_out[0] io_out[1] io_out[2] io_out[3] io_out[4] io_out[5]
+ io_out[6] io_out[7] vccd1 vssd1
.ends

* Black-box entry subcircuit for user_module_341571228858843732 abstract view
.subckt user_module_341571228858843732 io_in[0] io_in[1] io_in[2] io_in[3] io_in[4]
+ io_in[5] io_in[6] io_in[7] io_out[0] io_out[1] io_out[2] io_out[3] io_out[4] io_out[5]
+ io_out[6] io_out[7] vccd1 vssd1
.ends

* Black-box entry subcircuit for andrewm_parallel_to_uart abstract view
.subckt andrewm_parallel_to_uart io_in[0] io_in[1] io_in[2] io_in[3] io_in[4] io_in[5]
+ io_in[6] io_in[7] io_out[0] io_out[1] io_out[2] io_out[3] io_out[4] io_out[5] io_out[6]
+ io_out[7] vccd1 vssd1
.ends

* Black-box entry subcircuit for adder abstract view
.subckt adder io_in[0] io_in[1] io_in[2] io_in[3] io_in[4] io_in[5] io_in[6] io_in[7]
+ io_out[0] io_out[1] io_out[2] io_out[3] io_out[4] io_out[5] io_out[6] io_out[7]
+ vccd1 vssd1
.ends

* Black-box entry subcircuit for xor_shift32_evango abstract view
.subckt xor_shift32_evango io_in[0] io_in[1] io_in[2] io_in[3] io_in[4] io_in[5] io_in[6]
+ io_in[7] io_out[0] io_out[1] io_out[2] io_out[3] io_out[4] io_out[5] io_out[6] io_out[7]
+ vccd1 vssd1
.ends

* Black-box entry subcircuit for azdle_binary_clock abstract view
.subckt azdle_binary_clock io_in[0] io_in[1] io_in[2] io_in[3] io_in[4] io_in[5] io_in[6]
+ io_in[7] io_out[0] io_out[1] io_out[2] io_out[3] io_out[4] io_out[5] io_out[6] io_out[7]
+ vccd1 vssd1
.ends

* Black-box entry subcircuit for dwisehart_top abstract view
.subckt dwisehart_top io_in[0] io_in[1] io_in[2] io_in[3] io_in[4] io_in[5] io_in[6]
+ io_in[7] io_out[0] io_out[1] io_out[2] io_out[3] io_out[4] io_out[5] io_out[6] io_out[7]
+ vccd1 vssd1
.ends

* Black-box entry subcircuit for user_module_359372419264319489 abstract view
.subckt user_module_359372419264319489 io_in[0] io_in[1] io_in[2] io_in[3] io_in[4]
+ io_in[5] io_in[6] io_in[7] io_out[0] io_out[1] io_out[2] io_out[3] io_out[4] io_out[5]
+ io_out[6] io_out[7] vccd1 vssd1
.ends

* Black-box entry subcircuit for kevinwguan_tiny_tapeout abstract view
.subckt kevinwguan_tiny_tapeout io_in[0] io_in[1] io_in[2] io_in[3] io_in[4] io_in[5]
+ io_in[6] io_in[7] io_out[0] io_out[1] io_out[2] io_out[3] io_out[4] io_out[5] io_out[6]
+ io_out[7] vccd1 vssd1
.ends

* Black-box entry subcircuit for user_module_349833797657690706 abstract view
.subckt user_module_349833797657690706 io_in[0] io_in[1] io_in[2] io_in[3] io_in[4]
+ io_in[5] io_in[6] io_in[7] io_out[0] io_out[1] io_out[2] io_out[3] io_out[4] io_out[5]
+ io_out[6] io_out[7] vccd1 vssd1
.ends

* Black-box entry subcircuit for github_com_proppy_tt02_xls_counter abstract view
.subckt github_com_proppy_tt02_xls_counter io_in[0] io_in[1] io_in[2] io_in[3] io_in[4]
+ io_in[5] io_in[6] io_in[7] io_out[0] io_out[1] io_out[2] io_out[3] io_out[4] io_out[5]
+ io_out[6] io_out[7] vccd1 vssd1
.ends

* Black-box entry subcircuit for tt2_tholin_multiplexed_counter abstract view
.subckt tt2_tholin_multiplexed_counter io_in[0] io_in[1] io_in[2] io_in[3] io_in[4]
+ io_in[5] io_in[6] io_in[7] io_out[0] io_out[1] io_out[2] io_out[3] io_out[4] io_out[5]
+ io_out[6] io_out[7] vccd1 vssd1
.ends

* Black-box entry subcircuit for jglim_7seg abstract view
.subckt jglim_7seg io_in[0] io_in[1] io_in[2] io_in[3] io_in[4] io_in[5] io_in[6]
+ io_in[7] io_out[0] io_out[1] io_out[2] io_out[3] io_out[4] io_out[5] io_out[6] io_out[7]
+ vccd1 vssd1
.ends

* Black-box entry subcircuit for user_module_349934460979905106 abstract view
.subckt user_module_349934460979905106 io_in[0] io_in[1] io_in[2] io_in[3] io_in[4]
+ io_in[5] io_in[6] io_in[7] io_out[0] io_out[1] io_out[2] io_out[3] io_out[4] io_out[5]
+ io_out[6] io_out[7] vccd1 vssd1
.ends

* Black-box entry subcircuit for pwm_gen abstract view
.subckt pwm_gen io_in[0] io_in[1] io_in[2] io_in[3] io_in[4] io_in[5] io_in[6] io_in[7]
+ io_out[0] io_out[1] io_out[2] io_out[3] io_out[4] io_out[5] io_out[6] io_out[7]
+ vccd1 vssd1
.ends

* Black-box entry subcircuit for user_module_362886316051042305 abstract view
.subckt user_module_362886316051042305 io_in[0] io_in[1] io_in[2] io_in[3] io_in[4]
+ io_in[5] io_in[6] io_in[7] io_out[0] io_out[1] io_out[2] io_out[3] io_out[4] io_out[5]
+ io_out[6] io_out[7] vccd1 vssd1
.ends

* Black-box entry subcircuit for stevenmburns_toplevel abstract view
.subckt stevenmburns_toplevel io_in[0] io_in[1] io_in[2] io_in[3] io_in[4] io_in[5]
+ io_in[6] io_in[7] io_out[0] io_out[1] io_out[2] io_out[3] io_out[4] io_out[5] io_out[6]
+ io_out[7] vccd1 vssd1
.ends

* Black-box entry subcircuit for jblocklove_cgpt_benchmark_wrapper abstract view
.subckt jblocklove_cgpt_benchmark_wrapper io_in[0] io_in[1] io_in[2] io_in[3] io_in[4]
+ io_in[5] io_in[6] io_in[7] io_out[0] io_out[1] io_out[2] io_out[3] io_out[4] io_out[5]
+ io_out[6] io_out[7] vccd1 vssd1
.ends

* Black-box entry subcircuit for user_module_347497504164545108 abstract view
.subckt user_module_347497504164545108 io_in[0] io_in[1] io_in[2] io_in[3] io_in[4]
+ io_in[5] io_in[6] io_in[7] io_out[0] io_out[1] io_out[2] io_out[3] io_out[4] io_out[5]
+ io_out[6] io_out[7] vccd1 vssd1
.ends

* Black-box entry subcircuit for diferential_rvb2 abstract view
.subckt diferential_rvb2 io_in[0] io_in[1] io_in[2] io_in[3] io_in[4] io_in[5] io_in[6]
+ io_in[7] io_out[0] io_out[1] io_out[2] io_out[3] io_out[4] io_out[5] io_out[6] io_out[7]
+ vccd1 vssd1
.ends

* Black-box entry subcircuit for robbertvanginkel_hamming74 abstract view
.subckt robbertvanginkel_hamming74 io_in[0] io_in[1] io_in[2] io_in[3] io_in[4] io_in[5]
+ io_in[6] io_in[7] io_out[0] io_out[1] io_out[2] io_out[3] io_out[4] io_out[5] io_out[6]
+ io_out[7] vccd1 vssd1
.ends

* Black-box entry subcircuit for asic_multiplier_wrapper abstract view
.subckt asic_multiplier_wrapper io_in[0] io_in[1] io_in[2] io_in[3] io_in[4] io_in[5]
+ io_in[6] io_in[7] io_out[0] io_out[1] io_out[2] io_out[3] io_out[4] io_out[5] io_out[6]
+ io_out[7] vccd1 vssd1
.ends

* Black-box entry subcircuit for MichaelBell_6bit_fifo abstract view
.subckt MichaelBell_6bit_fifo io_in[0] io_in[1] io_in[2] io_in[3] io_in[4] io_in[5]
+ io_in[6] io_in[7] io_out[0] io_out[1] io_out[2] io_out[3] io_out[4] io_out[5] io_out[6]
+ io_out[7] vccd1 vssd1
.ends

* Black-box entry subcircuit for dratini0_fsk_modem_top abstract view
.subckt dratini0_fsk_modem_top io_in[0] io_in[1] io_in[2] io_in[3] io_in[4] io_in[5]
+ io_in[6] io_in[7] io_out[0] io_out[1] io_out[2] io_out[3] io_out[4] io_out[5] io_out[6]
+ io_out[7] vccd1 vssd1
.ends

* Black-box entry subcircuit for user_module_362833471952037889 abstract view
.subckt user_module_362833471952037889 io_in[0] io_in[1] io_in[2] io_in[3] io_in[4]
+ io_in[5] io_in[6] io_in[7] io_out[0] io_out[1] io_out[2] io_out[3] io_out[4] io_out[5]
+ io_out[6] io_out[7] vccd1 vssd1
.ends

* Black-box entry subcircuit for s4ga abstract view
.subckt s4ga io_in[0] io_in[1] io_in[2] io_in[3] io_in[4] io_in[5] io_in[6] io_in[7]
+ io_out[0] io_out[1] io_out[2] io_out[3] io_out[4] io_out[5] io_out[6] io_out[7]
+ vccd1 vssd1
.ends

* Black-box entry subcircuit for user_module_348195845106041428 abstract view
.subckt user_module_348195845106041428 io_in[0] io_in[1] io_in[2] io_in[3] io_in[4]
+ io_in[5] io_in[6] io_in[7] io_out[0] io_out[1] io_out[2] io_out[3] io_out[4] io_out[5]
+ io_out[6] io_out[7] vccd1 vssd1
.ends

* Black-box entry subcircuit for gbsha_ttfir_top abstract view
.subckt gbsha_ttfir_top io_in[0] io_in[1] io_in[2] io_in[3] io_in[4] io_in[5] io_in[6]
+ io_in[7] io_out[0] io_out[1] io_out[2] io_out[3] io_out[4] io_out[5] io_out[6] io_out[7]
+ vccd1 vssd1
.ends

* Black-box entry subcircuit for MichaelBell_hovalaag abstract view
.subckt MichaelBell_hovalaag io_in[0] io_in[1] io_in[2] io_in[3] io_in[4] io_in[5]
+ io_in[6] io_in[7] io_out[0] io_out[1] io_out[2] io_out[3] io_out[4] io_out[5] io_out[6]
+ io_out[7] vccd1 vssd1
.ends

* Black-box entry subcircuit for jar_pi abstract view
.subckt jar_pi io_in[0] io_in[1] io_in[2] io_in[3] io_in[4] io_in[5] io_in[6] io_in[7]
+ io_out[0] io_out[1] io_out[2] io_out[3] io_out[4] io_out[5] io_out[6] io_out[7]
+ vccd1 vssd1
.ends

* Black-box entry subcircuit for user_module_341609034095264340 abstract view
.subckt user_module_341609034095264340 io_in[0] io_in[1] io_in[2] io_in[3] io_in[4]
+ io_in[5] io_in[6] io_in[7] io_out[0] io_out[1] io_out[2] io_out[3] io_out[4] io_out[5]
+ io_out[6] io_out[7] vccd1 vssd1
.ends

* Black-box entry subcircuit for shadow1229_player abstract view
.subckt shadow1229_player io_in[0] io_in[1] io_in[2] io_in[3] io_in[4] io_in[5] io_in[6]
+ io_in[7] io_out[0] io_out[1] io_out[2] io_out[3] io_out[4] io_out[5] io_out[6] io_out[7]
+ vccd1 vssd1
.ends

* Black-box entry subcircuit for HiddenRoom_HiddenCPU abstract view
.subckt HiddenRoom_HiddenCPU io_in[0] io_in[1] io_in[2] io_in[3] io_in[4] io_in[5]
+ io_in[6] io_in[7] io_out[0] io_out[1] io_out[2] io_out[3] io_out[4] io_out[5] io_out[6]
+ io_out[7] vccd1 vssd1
.ends

* Black-box entry subcircuit for tiny_kinda_pic abstract view
.subckt tiny_kinda_pic io_in[0] io_in[1] io_in[2] io_in[3] io_in[4] io_in[5] io_in[6]
+ io_in[7] io_out[0] io_out[1] io_out[2] io_out[3] io_out[4] io_out[5] io_out[6] io_out[7]
+ vccd1 vssd1
.ends

* Black-box entry subcircuit for dratini0_pov_display_top abstract view
.subckt dratini0_pov_display_top io_in[0] io_in[1] io_in[2] io_in[3] io_in[4] io_in[5]
+ io_in[6] io_in[7] io_out[0] io_out[1] io_out[2] io_out[3] io_out[4] io_out[5] io_out[6]
+ io_out[7] vccd1 vssd1
.ends

* Black-box entry subcircuit for greenstyle_lfsr abstract view
.subckt greenstyle_lfsr io_in[0] io_in[1] io_in[2] io_in[3] io_in[4] io_in[5] io_in[6]
+ io_in[7] io_out[0] io_out[1] io_out[2] io_out[3] io_out[4] io_out[5] io_out[6] io_out[7]
+ vccd1 vssd1
.ends

* Black-box entry subcircuit for gregdavill_clock_top abstract view
.subckt gregdavill_clock_top io_in[0] io_in[1] io_in[2] io_in[3] io_in[4] io_in[5]
+ io_in[6] io_in[7] io_out[0] io_out[1] io_out[2] io_out[3] io_out[4] io_out[5] io_out[6]
+ io_out[7] vccd1 vssd1
.ends

* Black-box entry subcircuit for regymm_mcpi abstract view
.subckt regymm_mcpi io_in[0] io_in[1] io_in[2] io_in[3] io_in[4] io_in[5] io_in[6]
+ io_in[7] io_out[0] io_out[1] io_out[2] io_out[3] io_out[4] io_out[5] io_out[6] io_out[7]
+ vccd1 vssd1
.ends

* Black-box entry subcircuit for user_module_349813388252021330 abstract view
.subckt user_module_349813388252021330 io_in[0] io_in[1] io_in[2] io_in[3] io_in[4]
+ io_in[5] io_in[6] io_in[7] io_out[0] io_out[1] io_out[2] io_out[3] io_out[4] io_out[5]
+ io_out[6] io_out[7] vccd1 vssd1
.ends

* Black-box entry subcircuit for user_module_361728533238569985 abstract view
.subckt user_module_361728533238569985 io_in[0] io_in[1] io_in[2] io_in[3] io_in[4]
+ io_in[5] io_in[6] io_in[7] io_out[0] io_out[1] io_out[2] io_out[3] io_out[4] io_out[5]
+ io_out[6] io_out[7] vccd1 vssd1
.ends

* Black-box entry subcircuit for wormy_top abstract view
.subckt wormy_top io_in[0] io_in[1] io_in[2] io_in[3] io_in[4] io_in[5] io_in[6] io_in[7]
+ io_out[0] io_out[1] io_out[2] io_out[3] io_out[4] io_out[5] io_out[6] io_out[7]
+ vccd1 vssd1
.ends

* Black-box entry subcircuit for frog abstract view
.subckt frog io_in[0] io_in[1] io_in[2] io_in[3] io_in[4] io_in[5] io_in[6] io_in[7]
+ io_out[0] io_out[1] io_out[2] io_out[3] io_out[4] io_out[5] io_out[6] io_out[7]
+ vccd1 vssd1
.ends

* Black-box entry subcircuit for bat52_pwm_ddpm_top abstract view
.subckt bat52_pwm_ddpm_top io_in[0] io_in[1] io_in[2] io_in[3] io_in[4] io_in[5] io_in[6]
+ io_in[7] io_out[0] io_out[1] io_out[2] io_out[3] io_out[4] io_out[5] io_out[6] io_out[7]
+ vccd1 vssd1
.ends

* Black-box entry subcircuit for zymason_tinytop abstract view
.subckt zymason_tinytop io_in[0] io_in[1] io_in[2] io_in[3] io_in[4] io_in[5] io_in[6]
+ io_in[7] io_out[0] io_out[1] io_out[2] io_out[3] io_out[4] io_out[5] io_out[6] io_out[7]
+ vccd1 vssd1
.ends

* Black-box entry subcircuit for user_module_340805072482992722 abstract view
.subckt user_module_340805072482992722 io_in[0] io_in[1] io_in[2] io_in[3] io_in[4]
+ io_in[5] io_in[6] io_in[7] io_out[0] io_out[1] io_out[2] io_out[3] io_out[4] io_out[5]
+ io_out[6] io_out[7] vccd1 vssd1
.ends

* Black-box entry subcircuit for user_module_349047610915422802 abstract view
.subckt user_module_349047610915422802 io_in[0] io_in[1] io_in[2] io_in[3] io_in[4]
+ io_in[5] io_in[6] io_in[7] io_out[0] io_out[1] io_out[2] io_out[3] io_out[4] io_out[5]
+ io_out[6] io_out[7] vccd1 vssd1
.ends

* Black-box entry subcircuit for onebitcpu abstract view
.subckt onebitcpu io_in[0] io_in[1] io_in[2] io_in[3] io_in[4] io_in[5] io_in[6] io_in[7]
+ io_out[0] io_out[1] io_out[2] io_out[3] io_out[4] io_out[5] io_out[6] io_out[7]
+ vccd1 vssd1
.ends

* Black-box entry subcircuit for navray_top abstract view
.subckt navray_top io_in[0] io_in[1] io_in[2] io_in[3] io_in[4] io_in[5] io_in[6]
+ io_in[7] io_out[0] io_out[1] io_out[2] io_out[3] io_out[4] io_out[5] io_out[6] io_out[7]
+ vccd1 vssd1
.ends

* Black-box entry subcircuit for gatecat_fpga_top abstract view
.subckt gatecat_fpga_top io_in[0] io_in[1] io_in[2] io_in[3] io_in[4] io_in[5] io_in[6]
+ io_in[7] io_out[0] io_out[1] io_out[2] io_out[3] io_out[4] io_out[5] io_out[6] io_out[7]
+ vccd1 vssd1
.ends

* Black-box entry subcircuit for user_module_347688030570545747 abstract view
.subckt user_module_347688030570545747 io_in[0] io_in[1] io_in[2] io_in[3] io_in[4]
+ io_in[5] io_in[6] io_in[7] io_out[0] io_out[1] io_out[2] io_out[3] io_out[4] io_out[5]
+ io_out[6] io_out[7] vccd1 vssd1
.ends

* Black-box entry subcircuit for clemensnasenberg_top abstract view
.subckt clemensnasenberg_top io_in[0] io_in[1] io_in[2] io_in[3] io_in[4] io_in[5]
+ io_in[6] io_in[7] io_out[0] io_out[1] io_out[2] io_out[3] io_out[4] io_out[5] io_out[6]
+ io_out[7] vccd1 vssd1
.ends

* Black-box entry subcircuit for blueintegral_mat_mult abstract view
.subckt blueintegral_mat_mult io_in[0] io_in[1] io_in[2] io_in[3] io_in[4] io_in[5]
+ io_in[6] io_in[7] io_out[0] io_out[1] io_out[2] io_out[3] io_out[4] io_out[5] io_out[6]
+ io_out[7] vccd1 vssd1
.ends

* Black-box entry subcircuit for thezoq2_yafpga abstract view
.subckt thezoq2_yafpga io_in[0] io_in[1] io_in[2] io_in[3] io_in[4] io_in[5] io_in[6]
+ io_in[7] io_out[0] io_out[1] io_out[2] io_out[3] io_out[4] io_out[5] io_out[6] io_out[7]
+ vccd1 vssd1
.ends

* Black-box entry subcircuit for user_module_340318610245288530 abstract view
.subckt user_module_340318610245288530 io_in[0] io_in[1] io_in[2] io_in[3] io_in[4]
+ io_in[5] io_in[6] io_in[7] io_out[0] io_out[1] io_out[2] io_out[3] io_out[4] io_out[5]
+ io_out[6] io_out[7] vccd1 vssd1
.ends

* Black-box entry subcircuit for option22 abstract view
.subckt option22 io_in[0] io_in[1] io_in[2] io_in[3] io_in[4] io_in[5] io_in[6] io_in[7]
+ io_out[0] io_out[1] io_out[2] io_out[3] io_out[4] io_out[5] io_out[6] io_out[7]
+ vccd1 vssd1
.ends

* Black-box entry subcircuit for user_module_347787021138264660 abstract view
.subckt user_module_347787021138264660 io_in[0] io_in[1] io_in[2] io_in[3] io_in[4]
+ io_in[5] io_in[6] io_in[7] io_out[0] io_out[1] io_out[2] io_out[3] io_out[4] io_out[5]
+ io_out[6] io_out[7] vccd1 vssd1
.ends

* Black-box entry subcircuit for user_module_348540666182107731 abstract view
.subckt user_module_348540666182107731 io_in[0] io_in[1] io_in[2] io_in[3] io_in[4]
+ io_in[5] io_in[6] io_in[7] io_out[0] io_out[1] io_out[2] io_out[3] io_out[4] io_out[5]
+ io_out[6] io_out[7] vccd1 vssd1
.ends

* Black-box entry subcircuit for chase_the_beat abstract view
.subckt chase_the_beat io_in[0] io_in[1] io_in[2] io_in[3] io_in[4] io_in[5] io_in[6]
+ io_in[7] io_out[0] io_out[1] io_out[2] io_out[3] io_out[4] io_out[5] io_out[6] io_out[7]
+ vccd1 vssd1
.ends

* Black-box entry subcircuit for cpldcpu_TrainLED2top abstract view
.subckt cpldcpu_TrainLED2top io_in[0] io_in[1] io_in[2] io_in[3] io_in[4] io_in[5]
+ io_in[6] io_in[7] io_out[0] io_out[1] io_out[2] io_out[3] io_out[4] io_out[5] io_out[6]
+ io_out[7] vccd1 vssd1
.ends

* Black-box entry subcircuit for vaishnavachath_rotary_toplevel abstract view
.subckt vaishnavachath_rotary_toplevel io_in[0] io_in[1] io_in[2] io_in[3] io_in[4]
+ io_in[5] io_in[6] io_in[7] io_out[0] io_out[1] io_out[2] io_out[3] io_out[4] io_out[5]
+ io_out[6] io_out[7] vccd1 vssd1
.ends

* Black-box entry subcircuit for user_module_348787952842703444 abstract view