*SPEF "ieee 1481-1999"
*DESIGN "adamgreig_tt02_adc_dac"
*DATE "11:11:11 Fri 11 11, 1111"
*VENDOR "OpenRCX"
*PROGRAM "Parallel Extraction"
*VERSION "1.0"
*DESIGN_FLOW "NAME_SCOPE LOCAL" "PIN_CAP NONE"
*DIVIDER /
*DELIMITER :
*BUS_DELIMITER []
*T_UNIT 1 NS
*C_UNIT 1 PF
*R_UNIT 1 OHM
*L_UNIT 1 HENRY

*NAME_MAP
*1 io_in[0]
*2 io_in[1]
*3 io_in[2]
*4 io_in[3]
*5 io_in[4]
*6 io_in[5]
*7 io_in[6]
*8 io_in[7]
*9 io_out[0]
*10 io_out[1]
*11 io_out[2]
*12 net4
*13 net5
*14 net6
*15 net7
*16 net8
*19 _000_
*20 _001_
*21 _002_
*22 _003_
*23 _004_
*24 _005_
*25 _006_
*26 _007_
*27 _008_
*28 _009_
*29 _010_
*30 _011_
*31 _012_
*32 _013_
*33 _014_
*34 _015_
*35 _016_
*36 _017_
*37 _018_
*38 _019_
*39 _020_
*40 _021_
*41 _022_
*42 _023_
*43 _024_
*44 _025_
*45 _026_
*46 _027_
*47 _028_
*48 _029_
*49 _030_
*50 _031_
*51 _032_
*52 _033_
*53 _034_
*54 _035_
*55 _036_
*56 _037_
*57 _038_
*58 _039_
*59 _040_
*60 _041_
*61 _042_
*62 _043_
*63 _044_
*64 _045_
*65 _046_
*66 _047_
*67 _048_
*68 _049_
*69 _050_
*70 _051_
*71 _052_
*72 _053_
*73 _054_
*74 _055_
*75 _056_
*76 _057_
*77 _058_
*78 _059_
*79 _060_
*80 _061_
*81 _062_
*82 _063_
*83 _064_
*84 _065_
*85 _066_
*86 _067_
*87 _068_
*88 _069_
*89 _070_
*90 _071_
*91 _072_
*92 _073_
*93 _074_
*94 _075_
*95 _076_
*96 _077_
*97 _078_
*98 _079_
*99 _080_
*100 _081_
*101 _082_
*102 _083_
*103 _084_
*104 _085_
*105 _086_
*106 _087_
*107 _088_
*108 _089_
*109 _090_
*110 _091_
*111 _092_
*112 _093_
*113 _094_
*114 _095_
*115 _096_
*116 _097_
*117 _098_
*118 _099_
*119 _100_
*120 _101_
*121 _102_
*122 _103_
*123 _104_
*124 _105_
*125 _106_
*126 _107_
*127 _108_
*128 _109_
*129 _110_
*130 _111_
*131 _112_
*132 _113_
*133 _114_
*134 _115_
*135 _116_
*136 _117_
*137 _118_
*138 _119_
*139 _120_
*140 _121_
*141 _122_
*142 _123_
*143 _124_
*144 _125_
*145 _126_
*146 _127_
*147 _128_
*148 _129_
*149 _130_
*150 _131_
*151 _132_
*152 _133_
*153 _134_
*154 _135_
*155 _136_
*156 _137_
*157 _138_
*158 _139_
*159 _140_
*160 _141_
*161 _142_
*162 _143_
*163 _144_
*164 _145_
*165 _146_
*166 _147_
*167 _148_
*168 _149_
*169 _150_
*170 _151_
*171 _152_
*172 _153_
*173 _154_
*174 _155_
*175 _156_
*176 _157_
*177 _158_
*178 _159_
*179 _160_
*180 _161_
*181 _162_
*182 _163_
*183 _164_
*184 _165_
*185 _166_
*186 _167_
*187 _168_
*188 _169_
*189 _170_
*190 _171_
*191 _172_
*192 _173_
*193 _174_
*194 _175_
*195 _176_
*196 _177_
*197 _178_
*198 _179_
*199 _180_
*200 _181_
*201 _182_
*202 _183_
*203 _184_
*204 _185_
*205 _186_
*206 _187_
*207 _188_
*208 _189_
*209 _190_
*210 _191_
*211 _192_
*212 _193_
*213 _194_
*214 _195_
*215 _196_
*216 _197_
*217 _198_
*218 _199_
*219 _200_
*220 _201_
*221 _202_
*222 _203_
*223 _204_
*224 _205_
*225 _206_
*226 _207_
*227 _208_
*228 _209_
*229 _210_
*230 _211_
*231 _212_
*232 _213_
*233 _214_
*234 _215_
*235 _216_
*236 _217_
*237 _218_
*238 _219_
*239 _220_
*240 _221_
*241 _222_
*242 _223_
*243 _224_
*244 _225_
*245 _226_
*246 _227_
*247 _228_
*248 _229_
*249 _230_
*250 _231_
*251 _232_
*252 _233_
*253 _234_
*254 _235_
*255 _236_
*256 _237_
*257 _238_
*258 _239_
*259 _240_
*260 _241_
*261 _242_
*262 _243_
*263 _244_
*264 _245_
*265 _246_
*266 _247_
*267 _248_
*268 _249_
*269 _250_
*270 _251_
*271 _252_
*272 _253_
*273 _254_
*274 _255_
*275 _256_
*276 _257_
*277 _258_
*278 _259_
*279 _260_
*280 _261_
*281 _262_
*282 _263_
*283 _264_
*284 _265_
*285 _266_
*286 _267_
*287 _268_
*288 _269_
*289 _270_
*290 _271_
*291 _272_
*292 _273_
*293 _274_
*294 _275_
*295 _276_
*296 _277_
*297 _278_
*298 _279_
*299 _280_
*300 _281_
*301 _282_
*302 _283_
*303 _284_
*304 _285_
*305 _286_
*306 _287_
*307 _288_
*308 _289_
*309 _290_
*310 _291_
*311 _292_
*312 _293_
*313 _294_
*314 _295_
*315 _296_
*316 _297_
*317 _298_
*318 _299_
*319 _300_
*320 _301_
*321 _302_
*322 _303_
*323 _304_
*324 _305_
*325 _306_
*326 _307_
*327 _308_
*328 _309_
*329 _310_
*330 _311_
*331 _312_
*332 _313_
*333 _314_
*334 _315_
*335 _316_
*336 _317_
*337 _318_
*338 _319_
*339 _320_
*340 _321_
*341 _322_
*342 _323_
*343 _324_
*344 _325_
*345 _326_
*346 _327_
*347 _328_
*348 _329_
*349 _330_
*350 _331_
*351 _332_
*352 _333_
*353 _334_
*354 _335_
*355 _336_
*356 _337_
*357 _338_
*358 _339_
*359 _340_
*360 _341_
*361 _342_
*362 _343_
*363 _344_
*364 _345_
*365 _346_
*366 _347_
*367 _348_
*368 _349_
*369 _350_
*370 _351_
*371 _352_
*372 _353_
*373 _354_
*374 _355_
*375 _356_
*376 _357_
*377 _358_
*378 _359_
*379 _360_
*380 _361_
*381 _362_
*382 _363_
*383 _364_
*384 _365_
*385 _366_
*386 _367_
*387 _368_
*388 _369_
*389 _370_
*390 _371_
*391 _372_
*392 _373_
*393 _374_
*394 _375_
*395 _376_
*396 _377_
*397 _378_
*398 _379_
*399 _380_
*400 _381_
*401 _382_
*402 _383_
*403 _384_
*404 _385_
*405 _386_
*406 _387_
*407 _388_
*408 _389_
*409 _390_
*410 _391_
*411 _392_
*412 _393_
*413 _394_
*414 _395_
*415 _396_
*416 _397_
*417 _398_
*418 _399_
*419 _400_
*420 _401_
*421 _402_
*422 _403_
*423 _404_
*424 adc\.dac\.acc\[0\]
*425 adc\.dac\.acc\[10\]
*426 adc\.dac\.acc\[11\]
*427 adc\.dac\.acc\[12\]
*428 adc\.dac\.acc\[1\]
*429 adc\.dac\.acc\[2\]
*430 adc\.dac\.acc\[3\]
*431 adc\.dac\.acc\[4\]
*432 adc\.dac\.acc\[5\]
*433 adc\.dac\.acc\[6\]
*434 adc\.dac\.acc\[7\]
*435 adc\.dac\.acc\[8\]
*436 adc\.dac\.acc\[9\]
*437 adc\.data\[0\]
*438 adc\.data\[10\]
*439 adc\.data\[11\]
*440 adc\.data\[1\]
*441 adc\.data\[2\]
*442 adc\.data\[3\]
*443 adc\.data\[4\]
*444 adc\.data\[5\]
*445 adc\.data\[6\]
*446 adc\.data\[7\]
*447 adc\.data\[8\]
*448 adc\.data\[9\]
*449 adc_uart\.data_reg\[0\]
*450 adc_uart\.data_reg\[10\]
*451 adc_uart\.data_reg\[11\]
*452 adc_uart\.data_reg\[1\]
*453 adc_uart\.data_reg\[2\]
*454 adc_uart\.data_reg\[3\]
*455 adc_uart\.data_reg\[4\]
*456 adc_uart\.data_reg\[5\]
*457 adc_uart\.data_reg\[6\]
*458 adc_uart\.data_reg\[7\]
*459 adc_uart\.data_reg\[8\]
*460 adc_uart\.data_reg\[9\]
*461 adc_uart\.fsm_state\[0\]
*462 adc_uart\.fsm_state\[1\]
*463 adc_uart\.fsm_state\[2\]
*464 adc_uart\.tx_o
*465 adc_uart\.uart\.tx_cnt\[0\]
*466 adc_uart\.uart\.tx_cnt\[1\]
*467 adc_uart\.uart\.tx_cnt\[2\]
*468 adc_uart\.uart\.tx_cnt\[3\]
*469 adc_uart\.uart\.tx_reg\[1\]
*470 adc_uart\.uart\.tx_reg\[2\]
*471 adc_uart\.uart\.tx_reg\[3\]
*472 adc_uart\.uart\.tx_reg\[4\]
*473 adc_uart\.uart\.tx_reg\[5\]
*474 adc_uart\.uart\.tx_reg\[6\]
*475 adc_uart\.uart\.tx_reg\[7\]
*476 adc_uart\.uart\.tx_reg\[8\]
*477 adc_uart\.uart\.tx_reg\[9\]
*478 adc_uart\.valid
*479 clknet_0_io_in[0]
*480 clknet_3_0__leaf_io_in[0]
*481 clknet_3_1__leaf_io_in[0]
*482 clknet_3_2__leaf_io_in[0]
*483 clknet_3_3__leaf_io_in[0]
*484 clknet_3_4__leaf_io_in[0]
*485 clknet_3_5__leaf_io_in[0]
*486 clknet_3_6__leaf_io_in[0]
*487 clknet_3_7__leaf_io_in[0]
*488 dac\.acc\[0\]
*489 dac\.acc\[1\]
*490 dac\.acc\[2\]
*491 dac\.acc\[3\]
*492 dac\.acc\[4\]
*493 dac\.acc\[5\]
*494 dac\.acc\[6\]
*495 dac\.acc\[7\]
*496 dac\.acc\[8\]
*497 dac_uart\.bit_idx\[0\]
*498 dac_uart\.bit_idx\[1\]
*499 dac_uart\.bit_idx\[2\]
*500 dac_uart\.bit_idx\[3\]
*501 dac_uart\.ctr\[0\]
*502 dac_uart\.ctr\[1\]
*503 dac_uart\.ctr\[2\]
*504 dac_uart\.ctr\[3\]
*505 dac_uart\.data\[0\]
*506 dac_uart\.data\[1\]
*507 dac_uart\.data\[2\]
*508 dac_uart\.data\[3\]
*509 dac_uart\.data\[4\]
*510 dac_uart\.data\[5\]
*511 dac_uart\.data\[6\]
*512 dac_uart\.data\[7\]
*513 dac_uart\.fsm_state
*514 dac_uart\.sr\[0\]
*515 dac_uart\.sr\[1\]
*516 dac_uart\.sr\[2\]
*517 dac_uart\.sr\[3\]
*518 dac_uart\.sr\[4\]
*519 dac_uart\.sr\[5\]
*520 dac_uart\.sr\[6\]
*521 dac_uart\.sr\[7\]
*522 net1
*523 net2
*524 net3
*525 ready_sr\[0\]
*526 ready_sr\[1\]
*527 ready_sr\[2\]
*528 ready_sr\[3\]
*529 ready_sr\[4\]
*530 ready_sr\[5\]
*531 ready_sr\[6\]
*532 ready_sr\[7\]
*533 ready_sr\[8\]
*534 ANTENNA_1
*535 ANTENNA_10
*536 ANTENNA_11
*537 ANTENNA_12
*538 ANTENNA_13
*539 ANTENNA_2
*540 ANTENNA_3
*541 ANTENNA_4
*542 ANTENNA_5
*543 ANTENNA_6
*544 ANTENNA_7
*545 ANTENNA_8
*546 ANTENNA_9
*547 FILLER_0_110
*548 FILLER_0_113
*549 FILLER_0_131
*550 FILLER_0_138
*551 FILLER_0_141
*552 FILLER_0_159
*553 FILLER_0_166
*554 FILLER_0_169
*555 FILLER_0_187
*556 FILLER_0_194
*557 FILLER_0_197
*558 FILLER_0_205
*559 FILLER_0_214
*560 FILLER_0_221
*561 FILLER_0_225
*562 FILLER_0_237
*563 FILLER_0_249
*564 FILLER_0_253
*565 FILLER_0_26
*566 FILLER_0_265
*567 FILLER_0_277
*568 FILLER_0_281
*569 FILLER_0_29
*570 FILLER_0_293
*571 FILLER_0_3
*572 FILLER_0_37
*573 FILLER_0_54
*574 FILLER_0_57
*575 FILLER_0_61
*576 FILLER_0_64
*577 FILLER_0_8
*578 FILLER_0_82
*579 FILLER_0_85
*580 FILLER_0_90
*581 FILLER_10_110
*582 FILLER_10_118
*583 FILLER_10_135
*584 FILLER_10_139
*585 FILLER_10_141
*586 FILLER_10_147
*587 FILLER_10_155
*588 FILLER_10_161
*589 FILLER_10_168
*590 FILLER_10_180
*591 FILLER_10_192
*592 FILLER_10_197
*593 FILLER_10_208
*594 FILLER_10_220
*595 FILLER_10_227
*596 FILLER_10_239
*597 FILLER_10_247
*598 FILLER_10_251
*599 FILLER_10_253
*600 FILLER_10_258
*601 FILLER_10_26
*602 FILLER_10_270
*603 FILLER_10_282
*604 FILLER_10_29
*605 FILLER_10_291
*606 FILLER_10_3
*607 FILLER_10_48
*608 FILLER_10_60
*609 FILLER_10_82
*610 FILLER_10_85
*611 FILLER_10_9
*612 FILLER_10_93
*613 FILLER_11_105
*614 FILLER_11_111
*615 FILLER_11_113
*616 FILLER_11_131
*617 FILLER_11_142
*618 FILLER_11_15
*619 FILLER_11_150
*620 FILLER_11_161
*621 FILLER_11_167
*622 FILLER_11_169
*623 FILLER_11_176
*624 FILLER_11_183
*625 FILLER_11_197
*626 FILLER_11_207
*627 FILLER_11_219
*628 FILLER_11_223
*629 FILLER_11_225
*630 FILLER_11_229
*631 FILLER_11_233
*632 FILLER_11_245
*633 FILLER_11_257
*634 FILLER_11_269
*635 FILLER_11_277
*636 FILLER_11_281
*637 FILLER_11_290
*638 FILLER_11_298
*639 FILLER_11_3
*640 FILLER_11_36
*641 FILLER_11_48
*642 FILLER_11_57
*643 FILLER_11_69
*644 FILLER_11_93
*645 FILLER_12_101
*646 FILLER_12_118
*647 FILLER_12_126
*648 FILLER_12_131
*649 FILLER_12_139
*650 FILLER_12_141
*651 FILLER_12_146
*652 FILLER_12_150
*653 FILLER_12_154
*654 FILLER_12_166
*655 FILLER_12_180
*656 FILLER_12_192
*657 FILLER_12_197
*658 FILLER_12_209
*659 FILLER_12_22
*660 FILLER_12_221
*661 FILLER_12_233
*662 FILLER_12_245
*663 FILLER_12_251
*664 FILLER_12_253
*665 FILLER_12_265
*666 FILLER_12_277
*667 FILLER_12_281
*668 FILLER_12_287
*669 FILLER_12_29
*670 FILLER_12_3
*671 FILLER_12_49
*672 FILLER_12_61
*673 FILLER_12_82
*674 FILLER_12_85
*675 FILLER_12_97
*676 FILLER_13_110
*677 FILLER_13_113
*678 FILLER_13_122
*679 FILLER_13_129
*680 FILLER_13_148
*681 FILLER_13_159
*682 FILLER_13_167
*683 FILLER_13_169
*684 FILLER_13_181
*685 FILLER_13_193
*686 FILLER_13_205
*687 FILLER_13_21
*688 FILLER_13_211
*689 FILLER_13_219
*690 FILLER_13_223
*691 FILLER_13_225
*692 FILLER_13_237
*693 FILLER_13_249
*694 FILLER_13_261
*695 FILLER_13_267
*696 FILLER_13_273
*697 FILLER_13_279
*698 FILLER_13_281
*699 FILLER_13_29
*700 FILLER_13_291
*701 FILLER_13_3
*702 FILLER_13_48
*703 FILLER_13_57
*704 FILLER_13_69
*705 FILLER_13_73
*706 FILLER_13_90
*707 FILLER_14_101
*708 FILLER_14_118
*709 FILLER_14_124
*710 FILLER_14_128
*711 FILLER_14_141
*712 FILLER_14_153
*713 FILLER_14_167
*714 FILLER_14_174
*715 FILLER_14_180
*716 FILLER_14_186
*717 FILLER_14_194
*718 FILLER_14_197
*719 FILLER_14_209
*720 FILLER_14_21
*721 FILLER_14_221
*722 FILLER_14_233
*723 FILLER_14_245
*724 FILLER_14_251
*725 FILLER_14_253
*726 FILLER_14_265
*727 FILLER_14_27
*728 FILLER_14_273
*729 FILLER_14_279
*730 FILLER_14_29
*731 FILLER_14_291
*732 FILLER_14_297
*733 FILLER_14_3
*734 FILLER_14_41
*735 FILLER_14_45
*736 FILLER_14_48
*737 FILLER_14_67
*738 FILLER_14_79
*739 FILLER_14_83
*740 FILLER_14_85
*741 FILLER_14_97
*742 FILLER_15_110
*743 FILLER_15_113
*744 FILLER_15_125
*745 FILLER_15_130
*746 FILLER_15_141
*747 FILLER_15_148
*748 FILLER_15_159
*749 FILLER_15_167
*750 FILLER_15_169
*751 FILLER_15_181
*752 FILLER_15_193
*753 FILLER_15_205
*754 FILLER_15_217
*755 FILLER_15_223
*756 FILLER_15_225
*757 FILLER_15_237
*758 FILLER_15_248
*759 FILLER_15_25
*760 FILLER_15_260
*761 FILLER_15_272
*762 FILLER_15_281
*763 FILLER_15_293
*764 FILLER_15_3
*765 FILLER_15_46
*766 FILLER_15_54
*767 FILLER_15_57
*768 FILLER_15_76
*769 FILLER_15_88
*770 FILLER_16_118
*771 FILLER_16_130
*772 FILLER_16_138
*773 FILLER_16_141
*774 FILLER_16_153
*775 FILLER_16_161
*776 FILLER_16_169
*777 FILLER_16_178
*778 FILLER_16_190
*779 FILLER_16_197
*780 FILLER_16_206
*781 FILLER_16_218
*782 FILLER_16_230
*783 FILLER_16_242
*784 FILLER_16_250
*785 FILLER_16_253
*786 FILLER_16_26
*787 FILLER_16_265
*788 FILLER_16_277
*789 FILLER_16_283
*790 FILLER_16_289
*791 FILLER_16_29
*792 FILLER_16_297
*793 FILLER_16_3
*794 FILLER_16_47
*795 FILLER_16_68
*796 FILLER_16_80
*797 FILLER_16_85
*798 FILLER_16_9
*799 FILLER_16_97
*800 FILLER_17_105
*801 FILLER_17_111
*802 FILLER_17_113
*803 FILLER_17_131
*804 FILLER_17_143
*805 FILLER_17_149
*806 FILLER_17_15
*807 FILLER_17_153
*808 FILLER_17_165
*809 FILLER_17_169
*810 FILLER_17_174
*811 FILLER_17_186
*812 FILLER_17_198
*813 FILLER_17_210
*814 FILLER_17_222
*815 FILLER_17_225
*816 FILLER_17_242
*817 FILLER_17_254
*818 FILLER_17_266
*819 FILLER_17_278
*820 FILLER_17_281
*821 FILLER_17_290
*822 FILLER_17_298
*823 FILLER_17_3
*824 FILLER_17_36
*825 FILLER_17_48
*826 FILLER_17_57
*827 FILLER_17_69
*828 FILLER_17_93
*829 FILLER_18_117
*830 FILLER_18_129
*831 FILLER_18_138
*832 FILLER_18_141
*833 FILLER_18_149
*834 FILLER_18_161
*835 FILLER_18_169
*836 FILLER_18_179
*837 FILLER_18_191
*838 FILLER_18_195
*839 FILLER_18_197
*840 FILLER_18_202
*841 FILLER_18_214
*842 FILLER_18_222
*843 FILLER_18_232
*844 FILLER_18_236
*845 FILLER_18_245
*846 FILLER_18_251
*847 FILLER_18_253
*848 FILLER_18_26
*849 FILLER_18_265
*850 FILLER_18_277
*851 FILLER_18_289
*852 FILLER_18_29
*853 FILLER_18_297
*854 FILLER_18_3
*855 FILLER_18_41
*856 FILLER_18_45
*857 FILLER_18_62
*858 FILLER_18_82
*859 FILLER_18_85
*860 FILLER_18_9
*861 FILLER_18_97
*862 FILLER_19_110
*863 FILLER_19_113
*864 FILLER_19_125
*865 FILLER_19_137
*866 FILLER_19_145
*867 FILLER_19_149
*868 FILLER_19_156
*869 FILLER_19_169
*870 FILLER_19_176
*871 FILLER_19_195
*872 FILLER_19_207
*873 FILLER_19_21
*874 FILLER_19_219
*875 FILLER_19_223
*876 FILLER_19_225
*877 FILLER_19_231
*878 FILLER_19_240
*879 FILLER_19_252
*880 FILLER_19_264
*881 FILLER_19_268
*882 FILLER_19_274
*883 FILLER_19_286
*884 FILLER_19_290
*885 FILLER_19_297
*886 FILLER_19_3
*887 FILLER_19_33
*888 FILLER_19_53
*889 FILLER_19_57
*890 FILLER_19_64
*891 FILLER_19_72
*892 FILLER_19_90
*893 FILLER_1_110
*894 FILLER_1_113
*895 FILLER_1_131
*896 FILLER_1_15
*897 FILLER_1_160
*898 FILLER_1_169
*899 FILLER_1_187
*900 FILLER_1_198
*901 FILLER_1_206
*902 FILLER_1_213
*903 FILLER_1_220
*904 FILLER_1_225
*905 FILLER_1_23
*906 FILLER_1_237
*907 FILLER_1_245
*908 FILLER_1_253
*909 FILLER_1_265
*910 FILLER_1_277
*911 FILLER_1_281
*912 FILLER_1_293
*913 FILLER_1_3
*914 FILLER_1_41
*915 FILLER_1_53
*916 FILLER_1_57
*917 FILLER_1_69
*918 FILLER_1_73
*919 FILLER_1_90
*920 FILLER_20_101
*921 FILLER_20_118
*922 FILLER_20_130
*923 FILLER_20_138
*924 FILLER_20_141
*925 FILLER_20_152
*926 FILLER_20_163
*927 FILLER_20_172
*928 FILLER_20_184
*929 FILLER_20_197
*930 FILLER_20_209
*931 FILLER_20_221
*932 FILLER_20_233
*933 FILLER_20_245
*934 FILLER_20_251
*935 FILLER_20_253
*936 FILLER_20_26
*937 FILLER_20_262
*938 FILLER_20_274
*939 FILLER_20_282
*940 FILLER_20_289
*941 FILLER_20_29
*942 FILLER_20_297
*943 FILLER_20_3
*944 FILLER_20_41
*945 FILLER_20_58
*946 FILLER_20_79
*947 FILLER_20_83
*948 FILLER_20_85
*949 FILLER_20_9
*950 FILLER_20_97
*951 FILLER_21_111
*952 FILLER_21_113
*953 FILLER_21_131
*954 FILLER_21_139
*955 FILLER_21_144
*956 FILLER_21_15
*957 FILLER_21_156
*958 FILLER_21_163
*959 FILLER_21_167
*960 FILLER_21_169
*961 FILLER_21_181
*962 FILLER_21_193
*963 FILLER_21_201
*964 FILLER_21_208
*965 FILLER_21_217
*966 FILLER_21_223
*967 FILLER_21_225
*968 FILLER_21_237
*969 FILLER_21_242
*970 FILLER_21_249
*971 FILLER_21_258
*972 FILLER_21_270
*973 FILLER_21_278
*974 FILLER_21_281
*975 FILLER_21_293
*976 FILLER_21_3
*977 FILLER_21_34
*978 FILLER_21_54
*979 FILLER_21_57
*980 FILLER_21_61
*981 FILLER_21_78
*982 FILLER_21_99
*983 FILLER_22_101
*984 FILLER_22_118
*985 FILLER_22_130
*986 FILLER_22_138
*987 FILLER_22_141
*988 FILLER_22_15
*989 FILLER_22_151
*990 FILLER_22_157
*991 FILLER_22_165
*992 FILLER_22_177
*993 FILLER_22_189
*994 FILLER_22_195
*995 FILLER_22_197
*996 FILLER_22_209
*997 FILLER_22_213
*998 FILLER_22_222
*999 FILLER_22_234
*1000 FILLER_22_245
*1001 FILLER_22_251
*1002 FILLER_22_253
*1003 FILLER_22_260
*1004 FILLER_22_267
*1005 FILLER_22_27
*1006 FILLER_22_279
*1007 FILLER_22_29
*1008 FILLER_22_291
*1009 FILLER_22_3
*1010 FILLER_22_47
*1011 FILLER_22_67
*1012 FILLER_22_79
*1013 FILLER_22_83
*1014 FILLER_22_85
*1015 FILLER_22_97
*1016 FILLER_23_111
*1017 FILLER_23_113
*1018 FILLER_23_125
*1019 FILLER_23_137
*1020 FILLER_23_149
*1021 FILLER_23_15
*1022 FILLER_23_163
*1023 FILLER_23_167
*1024 FILLER_23_169
*1025 FILLER_23_181
*1026 FILLER_23_197
*1027 FILLER_23_209
*1028 FILLER_23_221
*1029 FILLER_23_225
*1030 FILLER_23_237
*1031 FILLER_23_249
*1032 FILLER_23_258
*1033 FILLER_23_27
*1034 FILLER_23_270
*1035 FILLER_23_278
*1036 FILLER_23_281
*1037 FILLER_23_293
*1038 FILLER_23_3
*1039 FILLER_23_39
*1040 FILLER_23_44
*1041 FILLER_23_57
*1042 FILLER_23_67
*1043 FILLER_23_79
*1044 FILLER_23_99
*1045 FILLER_24_109
*1046 FILLER_24_121
*1047 FILLER_24_133
*1048 FILLER_24_139
*1049 FILLER_24_141
*1050 FILLER_24_146
*1051 FILLER_24_15
*1052 FILLER_24_152
*1053 FILLER_24_161
*1054 FILLER_24_170
*1055 FILLER_24_182
*1056 FILLER_24_194
*1057 FILLER_24_197
*1058 FILLER_24_209
*1059 FILLER_24_218
*1060 FILLER_24_230
*1061 FILLER_24_242
*1062 FILLER_24_250
*1063 FILLER_24_253
*1064 FILLER_24_265
*1065 FILLER_24_27
*1066 FILLER_24_277
*1067 FILLER_24_285
*1068 FILLER_24_289
*1069 FILLER_24_29
*1070 FILLER_24_297
*1071 FILLER_24_3
*1072 FILLER_24_34
*1073 FILLER_24_42
*1074 FILLER_24_53
*1075 FILLER_24_65
*1076 FILLER_24_77
*1077 FILLER_24_83
*1078 FILLER_24_85
*1079 FILLER_24_97
*1080 FILLER_25_110
*1081 FILLER_25_113
*1082 FILLER_25_125
*1083 FILLER_25_137
*1084 FILLER_25_149
*1085 FILLER_25_15
*1086 FILLER_25_153
*1087 FILLER_25_162
*1088 FILLER_25_169
*1089 FILLER_25_181
*1090 FILLER_25_193
*1091 FILLER_25_201
*1092 FILLER_25_211
*1093 FILLER_25_215
*1094 FILLER_25_222
*1095 FILLER_25_225
*1096 FILLER_25_233
*1097 FILLER_25_240
*1098 FILLER_25_252
*1099 FILLER_25_264
*1100 FILLER_25_27
*1101 FILLER_25_276
*1102 FILLER_25_281
*1103 FILLER_25_293
*1104 FILLER_25_3
*1105 FILLER_25_35
*1106 FILLER_25_46
*1107 FILLER_25_53
*1108 FILLER_25_57
*1109 FILLER_25_66
*1110 FILLER_25_74
*1111 FILLER_25_86
*1112 FILLER_25_98
*1113 FILLER_26_108
*1114 FILLER_26_120
*1115 FILLER_26_132
*1116 FILLER_26_141
*1117 FILLER_26_15
*1118 FILLER_26_150
*1119 FILLER_26_157
*1120 FILLER_26_166
*1121 FILLER_26_174
*1122 FILLER_26_183
*1123 FILLER_26_192
*1124 FILLER_26_197
*1125 FILLER_26_203
*1126 FILLER_26_215
*1127 FILLER_26_227
*1128 FILLER_26_239
*1129 FILLER_26_251
*1130 FILLER_26_253
*1131 FILLER_26_265
*1132 FILLER_26_27
*1133 FILLER_26_277
*1134 FILLER_26_289
*1135 FILLER_26_29
*1136 FILLER_26_297
*1137 FILLER_26_3
*1138 FILLER_26_37
*1139 FILLER_26_45
*1140 FILLER_26_53
*1141 FILLER_26_60
*1142 FILLER_26_68
*1143 FILLER_26_77
*1144 FILLER_26_83
*1145 FILLER_26_85
*1146 FILLER_26_89
*1147 FILLER_26_98
*1148 FILLER_27_110
*1149 FILLER_27_113
*1150 FILLER_27_120
*1151 FILLER_27_129
*1152 FILLER_27_137
*1153 FILLER_27_148
*1154 FILLER_27_15
*1155 FILLER_27_156
*1156 FILLER_27_169
*1157 FILLER_27_181
*1158 FILLER_27_193
*1159 FILLER_27_205
*1160 FILLER_27_211
*1161 FILLER_27_222
*1162 FILLER_27_225
*1163 FILLER_27_235
*1164 FILLER_27_247
*1165 FILLER_27_259
*1166 FILLER_27_27
*1167 FILLER_27_271
*1168 FILLER_27_279
*1169 FILLER_27_281
*1170 FILLER_27_293
*1171 FILLER_27_3
*1172 FILLER_27_36
*1173 FILLER_27_48
*1174 FILLER_27_54
*1175 FILLER_27_57
*1176 FILLER_27_66
*1177 FILLER_27_72
*1178 FILLER_27_81
*1179 FILLER_27_99
*1180 FILLER_28_102
*1181 FILLER_28_110
*1182 FILLER_28_122
*1183 FILLER_28_126
*1184 FILLER_28_132
*1185 FILLER_28_141
*1186 FILLER_28_148
*1187 FILLER_28_15
*1188 FILLER_28_161
*1189 FILLER_28_167
*1190 FILLER_28_172
*1191 FILLER_28_184
*1192 FILLER_28_197
*1193 FILLER_28_204
*1194 FILLER_28_210
*1195 FILLER_28_221
*1196 FILLER_28_229
*1197 FILLER_28_24
*1198 FILLER_28_241
*1199 FILLER_28_249
*1200 FILLER_28_253
*1201 FILLER_28_263
*1202 FILLER_28_275
*1203 FILLER_28_281
*1204 FILLER_28_29
*1205 FILLER_28_294
*1206 FILLER_28_298
*1207 FILLER_28_3
*1208 FILLER_28_34
*1209 FILLER_28_54
*1210 FILLER_28_62
*1211 FILLER_28_69
*1212 FILLER_28_81
*1213 FILLER_28_85
*1214 FILLER_28_94
*1215 FILLER_29_105
*1216 FILLER_29_111
*1217 FILLER_29_113
*1218 FILLER_29_125
*1219 FILLER_29_137
*1220 FILLER_29_144
*1221 FILLER_29_156
*1222 FILLER_29_169
*1223 FILLER_29_17
*1224 FILLER_29_175
*1225 FILLER_29_183
*1226 FILLER_29_190
*1227 FILLER_29_198
*1228 FILLER_29_205
*1229 FILLER_29_219
*1230 FILLER_29_223
*1231 FILLER_29_225
*1232 FILLER_29_237
*1233 FILLER_29_249
*1234 FILLER_29_261
*1235 FILLER_29_269
*1236 FILLER_29_277
*1237 FILLER_29_281
*1238 FILLER_29_29
*1239 FILLER_29_293
*1240 FILLER_29_3
*1241 FILLER_29_41
*1242 FILLER_29_53
*1243 FILLER_29_57
*1244 FILLER_29_69
*1245 FILLER_29_81
*1246 FILLER_29_9
*1247 FILLER_29_93
*1248 FILLER_2_115
*1249 FILLER_2_135
*1250 FILLER_2_139
*1251 FILLER_2_141
*1252 FILLER_2_159
*1253 FILLER_2_179
*1254 FILLER_2_191
*1255 FILLER_2_195
*1256 FILLER_2_197
*1257 FILLER_2_204
*1258 FILLER_2_213
*1259 FILLER_2_221
*1260 FILLER_2_226
*1261 FILLER_2_238
*1262 FILLER_2_250
*1263 FILLER_2_253
*1264 FILLER_2_26
*1265 FILLER_2_265
*1266 FILLER_2_277
*1267 FILLER_2_289
*1268 FILLER_2_29
*1269 FILLER_2_297
*1270 FILLER_2_3
*1271 FILLER_2_37
*1272 FILLER_2_41
*1273 FILLER_2_60
*1274 FILLER_2_81
*1275 FILLER_2_85
*1276 FILLER_2_9
*1277 FILLER_2_95
*1278 FILLER_30_109
*1279 FILLER_30_11
*1280 FILLER_30_121
*1281 FILLER_30_132
*1282 FILLER_30_141
*1283 FILLER_30_153
*1284 FILLER_30_160
*1285 FILLER_30_17
*1286 FILLER_30_172
*1287 FILLER_30_184
*1288 FILLER_30_197
*1289 FILLER_30_21
*1290 FILLER_30_214
*1291 FILLER_30_226
*1292 FILLER_30_235
*1293 FILLER_30_247
*1294 FILLER_30_251
*1295 FILLER_30_253
*1296 FILLER_30_265
*1297 FILLER_30_27
*1298 FILLER_30_277
*1299 FILLER_30_289
*1300 FILLER_30_29
*1301 FILLER_30_297
*1302 FILLER_30_3
*1303 FILLER_30_36
*1304 FILLER_30_48
*1305 FILLER_30_55
*1306 FILLER_30_67
*1307 FILLER_30_82
*1308 FILLER_30_85
*1309 FILLER_30_97
*1310 FILLER_31_106
*1311 FILLER_31_113
*1312 FILLER_31_125
*1313 FILLER_31_13
*1314 FILLER_31_137
*1315 FILLER_31_144
*1316 FILLER_31_156
*1317 FILLER_31_169
*1318 FILLER_31_17
*1319 FILLER_31_178
*1320 FILLER_31_190
*1321 FILLER_31_202
*1322 FILLER_31_214
*1323 FILLER_31_222
*1324 FILLER_31_225
*1325 FILLER_31_23
*1326 FILLER_31_234
*1327 FILLER_31_246
*1328 FILLER_31_258
*1329 FILLER_31_270
*1330 FILLER_31_278
*1331 FILLER_31_281
*1332 FILLER_31_29
*1333 FILLER_31_297
*1334 FILLER_31_3
*1335 FILLER_31_35
*1336 FILLER_31_51
*1337 FILLER_31_55
*1338 FILLER_31_57
*1339 FILLER_31_67
*1340 FILLER_31_7
*1341 FILLER_31_79
*1342 FILLER_31_89
*1343 FILLER_31_97
*1344 FILLER_32_105
*1345 FILLER_32_111
*1346 FILLER_32_123
*1347 FILLER_32_135
*1348 FILLER_32_139
*1349 FILLER_32_141
*1350 FILLER_32_153
*1351 FILLER_32_165
*1352 FILLER_32_177
*1353 FILLER_32_189
*1354 FILLER_32_195
*1355 FILLER_32_197
*1356 FILLER_32_20
*1357 FILLER_32_209
*1358 FILLER_32_221
*1359 FILLER_32_229
*1360 FILLER_32_238
*1361 FILLER_32_250
*1362 FILLER_32_253
*1363 FILLER_32_262
*1364 FILLER_32_274
*1365 FILLER_32_286
*1366 FILLER_32_29
*1367 FILLER_32_298
*1368 FILLER_32_3
*1369 FILLER_32_41
*1370 FILLER_32_53
*1371 FILLER_32_60
*1372 FILLER_32_74
*1373 FILLER_32_8
*1374 FILLER_32_82
*1375 FILLER_32_85
*1376 FILLER_32_93
*1377 FILLER_33_107
*1378 FILLER_33_11
*1379 FILLER_33_111
*1380 FILLER_33_113
*1381 FILLER_33_123
*1382 FILLER_33_135
*1383 FILLER_33_139
*1384 FILLER_33_149
*1385 FILLER_33_161
*1386 FILLER_33_167
*1387 FILLER_33_169
*1388 FILLER_33_181
*1389 FILLER_33_19
*1390 FILLER_33_193
*1391 FILLER_33_199
*1392 FILLER_33_206
*1393 FILLER_33_218
*1394 FILLER_33_225
*1395 FILLER_33_241
*1396 FILLER_33_248
*1397 FILLER_33_25
*1398 FILLER_33_260
*1399 FILLER_33_272
*1400 FILLER_33_281
*1401 FILLER_33_293
*1402 FILLER_33_3
*1403 FILLER_33_43
*1404 FILLER_33_51
*1405 FILLER_33_55
*1406 FILLER_33_57
*1407 FILLER_33_62
*1408 FILLER_33_71
*1409 FILLER_33_83
*1410 FILLER_33_95
*1411 FILLER_34_100
*1412 FILLER_34_106
*1413 FILLER_34_115
*1414 FILLER_34_127
*1415 FILLER_34_139
*1416 FILLER_34_141
*1417 FILLER_34_153
*1418 FILLER_34_17
*1419 FILLER_34_171
*1420 FILLER_34_183
*1421 FILLER_34_190
*1422 FILLER_34_197
*1423 FILLER_34_209
*1424 FILLER_34_221
*1425 FILLER_34_229
*1426 FILLER_34_241
*1427 FILLER_34_249
*1428 FILLER_34_25
*1429 FILLER_34_253
*1430 FILLER_34_262
*1431 FILLER_34_274
*1432 FILLER_34_286
*1433 FILLER_34_29
*1434 FILLER_34_297
*1435 FILLER_34_3
*1436 FILLER_34_37
*1437 FILLER_34_43
*1438 FILLER_34_49
*1439 FILLER_34_55
*1440 FILLER_34_64
*1441 FILLER_34_73
*1442 FILLER_34_8
*1443 FILLER_34_81
*1444 FILLER_34_85
*1445 FILLER_34_96
*1446 FILLER_35_10
*1447 FILLER_35_110
*1448 FILLER_35_113
*1449 FILLER_35_125
*1450 FILLER_35_137
*1451 FILLER_35_14
*1452 FILLER_35_153
*1453 FILLER_35_165
*1454 FILLER_35_169
*1455 FILLER_35_181
*1456 FILLER_35_193
*1457 FILLER_35_205
*1458 FILLER_35_217
*1459 FILLER_35_223
*1460 FILLER_35_225
*1461 FILLER_35_23
*1462 FILLER_35_242
*1463 FILLER_35_254
*1464 FILLER_35_266
*1465 FILLER_35_278
*1466 FILLER_35_281
*1467 FILLER_35_293
*1468 FILLER_35_3
*1469 FILLER_35_36
*1470 FILLER_35_48
*1471 FILLER_35_57
*1472 FILLER_35_62
*1473 FILLER_35_74
*1474 FILLER_35_86
*1475 FILLER_35_98
*1476 FILLER_36_109
*1477 FILLER_36_117
*1478 FILLER_36_124
*1479 FILLER_36_136
*1480 FILLER_36_141
*1481 FILLER_36_149
*1482 FILLER_36_15
*1483 FILLER_36_157
*1484 FILLER_36_169
*1485 FILLER_36_181
*1486 FILLER_36_193
*1487 FILLER_36_197
*1488 FILLER_36_209
*1489 FILLER_36_22
*1490 FILLER_36_221
*1491 FILLER_36_233
*1492 FILLER_36_245
*1493 FILLER_36_251
*1494 FILLER_36_253
*1495 FILLER_36_265
*1496 FILLER_36_277
*1497 FILLER_36_29
*1498 FILLER_36_295
*1499 FILLER_36_3
*1500 FILLER_36_40
*1501 FILLER_36_49
*1502 FILLER_36_55
*1503 FILLER_36_60
*1504 FILLER_36_7
*1505 FILLER_36_72
*1506 FILLER_36_85
*1507 FILLER_36_97
*1508 FILLER_37_105
*1509 FILLER_37_111
*1510 FILLER_37_113
*1511 FILLER_37_12
*1512 FILLER_37_125
*1513 FILLER_37_137
*1514 FILLER_37_149
*1515 FILLER_37_16
*1516 FILLER_37_161
*1517 FILLER_37_167
*1518 FILLER_37_169
*1519 FILLER_37_181
*1520 FILLER_37_193
*1521 FILLER_37_205
*1522 FILLER_37_217
*1523 FILLER_37_22
*1524 FILLER_37_223
*1525 FILLER_37_225
*1526 FILLER_37_237
*1527 FILLER_37_255
*1528 FILLER_37_267
*1529 FILLER_37_279
*1530 FILLER_37_281
*1531 FILLER_37_293
*1532 FILLER_37_3
*1533 FILLER_37_34
*1534 FILLER_37_46
*1535 FILLER_37_54
*1536 FILLER_37_57
*1537 FILLER_37_65
*1538 FILLER_37_7
*1539 FILLER_37_71
*1540 FILLER_37_83
*1541 FILLER_37_95
*1542 FILLER_38_109
*1543 FILLER_38_12
*1544 FILLER_38_121
*1545 FILLER_38_133
*1546 FILLER_38_139
*1547 FILLER_38_141
*1548 FILLER_38_150
*1549 FILLER_38_157
*1550 FILLER_38_169
*1551 FILLER_38_180
*1552 FILLER_38_19
*1553 FILLER_38_192
*1554 FILLER_38_197
*1555 FILLER_38_209
*1556 FILLER_38_221
*1557 FILLER_38_233
*1558 FILLER_38_245
*1559 FILLER_38_251
*1560 FILLER_38_253
*1561 FILLER_38_265
*1562 FILLER_38_27
*1563 FILLER_38_277
*1564 FILLER_38_289
*1565 FILLER_38_29
*1566 FILLER_38_297
*1567 FILLER_38_3
*1568 FILLER_38_38
*1569 FILLER_38_50
*1570 FILLER_38_62
*1571 FILLER_38_75
*1572 FILLER_38_83
*1573 FILLER_38_85
*1574 FILLER_38_97
*1575 FILLER_39_104
*1576 FILLER_39_11
*1577 FILLER_39_113
*1578 FILLER_39_120
*1579 FILLER_39_132
*1580 FILLER_39_144
*1581 FILLER_39_156
*1582 FILLER_39_169
*1583 FILLER_39_17
*1584 FILLER_39_181
*1585 FILLER_39_202
*1586 FILLER_39_214
*1587 FILLER_39_222
*1588 FILLER_39_225
*1589 FILLER_39_233
*1590 FILLER_39_245
*1591 FILLER_39_257
*1592 FILLER_39_269
*1593 FILLER_39_277
*1594 FILLER_39_28
*1595 FILLER_39_281
*1596 FILLER_39_291
*1597 FILLER_39_3
*1598 FILLER_39_41
*1599 FILLER_39_53
*1600 FILLER_39_57
*1601 FILLER_39_74
*1602 FILLER_39_86
*1603 FILLER_39_92
*1604 FILLER_3_100
*1605 FILLER_3_11
*1606 FILLER_3_110
*1607 FILLER_3_113
*1608 FILLER_3_131
*1609 FILLER_3_15
*1610 FILLER_3_151
*1611 FILLER_3_165
*1612 FILLER_3_169
*1613 FILLER_3_178
*1614 FILLER_3_188
*1615 FILLER_3_197
*1616 FILLER_3_205
*1617 FILLER_3_211
*1618 FILLER_3_217
*1619 FILLER_3_223
*1620 FILLER_3_225
*1621 FILLER_3_232
*1622 FILLER_3_241
*1623 FILLER_3_253
*1624 FILLER_3_265
*1625 FILLER_3_277
*1626 FILLER_3_281
*1627 FILLER_3_293
*1628 FILLER_3_3
*1629 FILLER_3_36
*1630 FILLER_3_48
*1631 FILLER_3_57
*1632 FILLER_3_69
*1633 FILLER_3_93
*1634 FILLER_40_10
*1635 FILLER_40_107
*1636 FILLER_40_119
*1637 FILLER_40_131
*1638 FILLER_40_138
*1639 FILLER_40_141
*1640 FILLER_40_145
*1641 FILLER_40_153
*1642 FILLER_40_165
*1643 FILLER_40_177
*1644 FILLER_40_189
*1645 FILLER_40_195
*1646 FILLER_40_197
*1647 FILLER_40_209
*1648 FILLER_40_216
*1649 FILLER_40_22
*1650 FILLER_40_228
*1651 FILLER_40_240
*1652 FILLER_40_253
*1653 FILLER_40_265
*1654 FILLER_40_277
*1655 FILLER_40_289
*1656 FILLER_40_29
*1657 FILLER_40_297
*1658 FILLER_40_3
*1659 FILLER_40_38
*1660 FILLER_40_50
*1661 FILLER_40_61
*1662 FILLER_40_73
*1663 FILLER_40_81
*1664 FILLER_40_85
*1665 FILLER_40_95
*1666 FILLER_41_104
*1667 FILLER_41_113
*1668 FILLER_41_125
*1669 FILLER_41_137
*1670 FILLER_41_149
*1671 FILLER_41_15
*1672 FILLER_41_158
*1673 FILLER_41_166
*1674 FILLER_41_169
*1675 FILLER_41_181
*1676 FILLER_41_193
*1677 FILLER_41_205
*1678 FILLER_41_217
*1679 FILLER_41_223
*1680 FILLER_41_225
*1681 FILLER_41_232
*1682 FILLER_41_244
*1683 FILLER_41_256
*1684 FILLER_41_268
*1685 FILLER_41_27
*1686 FILLER_41_281
*1687 FILLER_41_293
*1688 FILLER_41_3
*1689 FILLER_41_33
*1690 FILLER_41_38
*1691 FILLER_41_42
*1692 FILLER_41_46
*1693 FILLER_41_54
*1694 FILLER_41_57
*1695 FILLER_41_69
*1696 FILLER_41_79
*1697 FILLER_41_92
*1698 FILLER_42_104
*1699 FILLER_42_116
*1700 FILLER_42_128
*1701 FILLER_42_141
*1702 FILLER_42_153
*1703 FILLER_42_165
*1704 FILLER_42_177
*1705 FILLER_42_189
*1706 FILLER_42_195