*SPEF "ieee 1481-1999"
*DESIGN "adamgreig_tt02_gps_ca_prn"
*DATE "11:11:11 Fri 11 11, 1111"
*VENDOR "OpenRCX"
*PROGRAM "Parallel Extraction"
*VERSION "1.0"
*DESIGN_FLOW "NAME_SCOPE LOCAL" "PIN_CAP NONE"
*DIVIDER /
*DELIMITER :
*BUS_DELIMITER []
*T_UNIT 1 NS
*C_UNIT 1 PF
*R_UNIT 1 OHM
*L_UNIT 1 HENRY

*NAME_MAP
*1 io_in[0]
*2 io_in[1]
*3 io_in[2]
*4 io_in[3]
*5 io_in[4]
*6 io_in[5]
*7 io_in[6]
*8 io_in[7]
*9 io_out[0]
*10 io_out[1]
*11 io_out[2]
*12 net7
*13 net8
*14 net9
*15 net10
*16 net11
*19 _000_
*20 _001_
*21 _002_
*22 _003_
*23 _004_
*24 _005_
*25 _006_
*26 _007_
*27 _008_
*28 _009_
*29 _010_
*30 _011_
*31 _012_
*32 _013_
*33 _014_
*34 _015_
*35 _016_
*36 _017_
*37 _018_
*38 _019_
*39 _020_
*40 _021_
*41 _022_
*42 _023_
*43 _024_
*44 _025_
*45 _026_
*46 _027_
*47 _028_
*48 _029_
*49 _030_
*50 _031_
*51 _032_
*52 _033_
*53 _034_
*54 _035_
*55 _036_
*56 _037_
*57 _038_
*58 _039_
*59 _040_
*60 _041_
*61 _042_
*62 _043_
*63 _044_
*64 _045_
*65 _046_
*66 _047_
*67 _048_
*68 _049_
*69 _050_
*70 _051_
*71 _052_
*72 _053_
*73 _054_
*74 _055_
*75 _056_
*76 _057_
*77 _058_
*78 _059_
*79 _060_
*80 _061_
*81 _062_
*82 _063_
*83 _064_
*84 _065_
*85 _066_
*86 _067_
*87 _068_
*88 _069_
*89 _070_
*90 _071_
*91 _072_
*92 _073_
*93 _074_
*94 _075_
*95 _076_
*96 _077_
*97 _078_
*98 _079_
*99 _080_
*100 _081_
*101 _082_
*102 _083_
*103 _084_
*104 _085_
*105 _086_
*106 _087_
*107 _088_
*108 _089_
*109 _090_
*110 _091_
*111 _092_
*112 _093_
*113 _094_
*114 _095_
*115 _096_
*116 _097_
*117 _098_
*118 _099_
*119 _100_
*120 _101_
*121 _102_
*122 _103_
*123 _104_
*124 _105_
*125 _106_
*126 _107_
*127 _108_
*128 _109_
*129 _110_
*130 _111_
*131 _112_
*132 _113_
*133 _114_
*134 _115_
*135 _116_
*136 _117_
*137 _118_
*138 _119_
*139 _120_
*140 _121_
*141 _122_
*142 _123_
*143 _124_
*144 _125_
*145 _126_
*146 _127_
*147 _128_
*148 _129_
*149 _130_
*150 _131_
*151 _132_
*152 _133_
*153 _134_
*154 _135_
*155 _136_
*156 _137_
*157 _138_
*158 _139_
*159 _140_
*160 _141_
*161 _142_
*162 _143_
*163 _144_
*164 _145_
*165 _146_
*166 _147_
*167 _148_
*168 _149_
*169 _150_
*170 _151_
*171 _152_
*172 _153_
*173 _154_
*174 _155_
*175 _156_
*176 _157_
*177 clknet_0_io_in[0]
*178 clknet_1_0__leaf_io_in[0]
*179 clknet_1_1__leaf_io_in[0]
*180 g1\[0\]
*181 g1\[1\]
*182 g1\[2\]
*183 g1\[3\]
*184 g1\[4\]
*185 g1\[5\]
*186 g1\[6\]
*187 g1\[7\]
*188 g1\[8\]
*189 g1\[9\]
*190 g2\[0\]
*191 g2\[1\]
*192 g2\[2\]
*193 g2\[3\]
*194 g2\[4\]
*195 g2\[5\]
*196 g2\[6\]
*197 g2\[7\]
*198 g2\[8\]
*199 g2\[9\]
*200 net1
*201 net2
*202 net3
*203 net4
*204 net5
*205 net6
*206 FILLER_0_103
*207 FILLER_0_111
*208 FILLER_0_113
*209 FILLER_0_125
*210 FILLER_0_137
*211 FILLER_0_141
*212 FILLER_0_153
*213 FILLER_0_165
*214 FILLER_0_169
*215 FILLER_0_181
*216 FILLER_0_193
*217 FILLER_0_197
*218 FILLER_0_209
*219 FILLER_0_221
*220 FILLER_0_225
*221 FILLER_0_237
*222 FILLER_0_249
*223 FILLER_0_253
*224 FILLER_0_26
*225 FILLER_0_265
*226 FILLER_0_277
*227 FILLER_0_281
*228 FILLER_0_29
*229 FILLER_0_293
*230 FILLER_0_3
*231 FILLER_0_35
*232 FILLER_0_52
*233 FILLER_0_57
*234 FILLER_0_75
*235 FILLER_0_83
*236 FILLER_0_85
*237 FILLER_0_9
*238 FILLER_10_109
*239 FILLER_10_121
*240 FILLER_10_125
*241 FILLER_10_130
*242 FILLER_10_138
*243 FILLER_10_141
*244 FILLER_10_153
*245 FILLER_10_16
*246 FILLER_10_165
*247 FILLER_10_177
*248 FILLER_10_189
*249 FILLER_10_195
*250 FILLER_10_197
*251 FILLER_10_209
*252 FILLER_10_221
*253 FILLER_10_23
*254 FILLER_10_233
*255 FILLER_10_245
*256 FILLER_10_251
*257 FILLER_10_253
*258 FILLER_10_265
*259 FILLER_10_27
*260 FILLER_10_277
*261 FILLER_10_289
*262 FILLER_10_29
*263 FILLER_10_297
*264 FILLER_10_3
*265 FILLER_10_41
*266 FILLER_10_53
*267 FILLER_10_60
*268 FILLER_10_74
*269 FILLER_10_78
*270 FILLER_10_82
*271 FILLER_10_85
*272 FILLER_10_89
*273 FILLER_10_9
*274 FILLER_10_98
*275 FILLER_11_109
*276 FILLER_11_11
*277 FILLER_11_113
*278 FILLER_11_125
*279 FILLER_11_137
*280 FILLER_11_149
*281 FILLER_11_15
*282 FILLER_11_161
*283 FILLER_11_167
*284 FILLER_11_169
*285 FILLER_11_181
*286 FILLER_11_193
*287 FILLER_11_205
*288 FILLER_11_217
*289 FILLER_11_223
*290 FILLER_11_225
*291 FILLER_11_237
*292 FILLER_11_249
*293 FILLER_11_261
*294 FILLER_11_273
*295 FILLER_11_279
*296 FILLER_11_281
*297 FILLER_11_293
*298 FILLER_11_3
*299 FILLER_11_32
*300 FILLER_11_44
*301 FILLER_11_50
*302 FILLER_11_57
*303 FILLER_11_65
*304 FILLER_11_7
*305 FILLER_11_71
*306 FILLER_11_80
*307 FILLER_11_86
*308 FILLER_11_90
*309 FILLER_11_97
*310 FILLER_12_109
*311 FILLER_12_11
*312 FILLER_12_121
*313 FILLER_12_133
*314 FILLER_12_139
*315 FILLER_12_141
*316 FILLER_12_153
*317 FILLER_12_165
*318 FILLER_12_177
*319 FILLER_12_189
*320 FILLER_12_19
*321 FILLER_12_195
*322 FILLER_12_197
*323 FILLER_12_209
*324 FILLER_12_221
*325 FILLER_12_233
*326 FILLER_12_245
*327 FILLER_12_251
*328 FILLER_12_253
*329 FILLER_12_26
*330 FILLER_12_265
*331 FILLER_12_277
*332 FILLER_12_289
*333 FILLER_12_29
*334 FILLER_12_297
*335 FILLER_12_3
*336 FILLER_12_42
*337 FILLER_12_55
*338 FILLER_12_63
*339 FILLER_12_7
*340 FILLER_12_74
*341 FILLER_12_82
*342 FILLER_12_85
*343 FILLER_12_97
*344 FILLER_13_106
*345 FILLER_13_113
*346 FILLER_13_125
*347 FILLER_13_13
*348 FILLER_13_137
*349 FILLER_13_149
*350 FILLER_13_161
*351 FILLER_13_167
*352 FILLER_13_169
*353 FILLER_13_181
*354 FILLER_13_193
*355 FILLER_13_205
*356 FILLER_13_217
*357 FILLER_13_223
*358 FILLER_13_225
*359 FILLER_13_237
*360 FILLER_13_24
*361 FILLER_13_249
*362 FILLER_13_261
*363 FILLER_13_273
*364 FILLER_13_279
*365 FILLER_13_281
*366 FILLER_13_293
*367 FILLER_13_3
*368 FILLER_13_32
*369 FILLER_13_41
*370 FILLER_13_45
*371 FILLER_13_53
*372 FILLER_13_57
*373 FILLER_13_69
*374 FILLER_13_81
*375 FILLER_13_87
*376 FILLER_13_94
*377 FILLER_14_109
*378 FILLER_14_11
*379 FILLER_14_121
*380 FILLER_14_133
*381 FILLER_14_139
*382 FILLER_14_141
*383 FILLER_14_146
*384 FILLER_14_158
*385 FILLER_14_170
*386 FILLER_14_182
*387 FILLER_14_194
*388 FILLER_14_197
*389 FILLER_14_209
*390 FILLER_14_21
*391 FILLER_14_221
*392 FILLER_14_233
*393 FILLER_14_245
*394 FILLER_14_251
*395 FILLER_14_253
*396 FILLER_14_265
*397 FILLER_14_27
*398 FILLER_14_277
*399 FILLER_14_289
*400 FILLER_14_29
*401 FILLER_14_297
*402 FILLER_14_3
*403 FILLER_14_41
*404 FILLER_14_49
*405 FILLER_14_57
*406 FILLER_14_69
*407 FILLER_14_82
*408 FILLER_14_85
*409 FILLER_14_97
*410 FILLER_15_111
*411 FILLER_15_113
*412 FILLER_15_119
*413 FILLER_15_12
*414 FILLER_15_131
*415 FILLER_15_143
*416 FILLER_15_155
*417 FILLER_15_167
*418 FILLER_15_169
*419 FILLER_15_181
*420 FILLER_15_193
*421 FILLER_15_205
*422 FILLER_15_217
*423 FILLER_15_223
*424 FILLER_15_225
*425 FILLER_15_237
*426 FILLER_15_249
*427 FILLER_15_26
*428 FILLER_15_261
*429 FILLER_15_273
*430 FILLER_15_279
*431 FILLER_15_281
*432 FILLER_15_293
*433 FILLER_15_3
*434 FILLER_15_34
*435 FILLER_15_39
*436 FILLER_15_47
*437 FILLER_15_54
*438 FILLER_15_57
*439 FILLER_15_66
*440 FILLER_15_7
*441 FILLER_15_78
*442 FILLER_15_90
*443 FILLER_15_99
*444 FILLER_16_106
*445 FILLER_16_118
*446 FILLER_16_12
*447 FILLER_16_130
*448 FILLER_16_138
*449 FILLER_16_141
*450 FILLER_16_153
*451 FILLER_16_165
*452 FILLER_16_177
*453 FILLER_16_189
*454 FILLER_16_195
*455 FILLER_16_197
*456 FILLER_16_20
*457 FILLER_16_209
*458 FILLER_16_221
*459 FILLER_16_233
*460 FILLER_16_245
*461 FILLER_16_251
*462 FILLER_16_253
*463 FILLER_16_26
*464 FILLER_16_265
*465 FILLER_16_277
*466 FILLER_16_289
*467 FILLER_16_29
*468 FILLER_16_297
*469 FILLER_16_3
*470 FILLER_16_37
*471 FILLER_16_48
*472 FILLER_16_55
*473 FILLER_16_67
*474 FILLER_16_79
*475 FILLER_16_83
*476 FILLER_16_85
*477 FILLER_16_93
*478 FILLER_16_99
*479 FILLER_17_109
*480 FILLER_17_113
*481 FILLER_17_120
*482 FILLER_17_132
*483 FILLER_17_144
*484 FILLER_17_156
*485 FILLER_17_169
*486 FILLER_17_181
*487 FILLER_17_19
*488 FILLER_17_193
*489 FILLER_17_205
*490 FILLER_17_217
*491 FILLER_17_223
*492 FILLER_17_225
*493 FILLER_17_237
*494 FILLER_17_249
*495 FILLER_17_261
*496 FILLER_17_273
*497 FILLER_17_279
*498 FILLER_17_281
*499 FILLER_17_293
*500 FILLER_17_3
*501 FILLER_17_33
*502 FILLER_17_41
*503 FILLER_17_50
*504 FILLER_17_57
*505 FILLER_17_66
*506 FILLER_17_73
*507 FILLER_17_85
*508 FILLER_17_97
*509 FILLER_18_109
*510 FILLER_18_121
*511 FILLER_18_13
*512 FILLER_18_133
*513 FILLER_18_139
*514 FILLER_18_141
*515 FILLER_18_153
*516 FILLER_18_165
*517 FILLER_18_177
*518 FILLER_18_189
*519 FILLER_18_195
*520 FILLER_18_197
*521 FILLER_18_209
*522 FILLER_18_22
*523 FILLER_18_221
*524 FILLER_18_233
*525 FILLER_18_245
*526 FILLER_18_251
*527 FILLER_18_253
*528 FILLER_18_265
*529 FILLER_18_277
*530 FILLER_18_289
*531 FILLER_18_29
*532 FILLER_18_297
*533 FILLER_18_3
*534 FILLER_18_36
*535 FILLER_18_42
*536 FILLER_18_48
*537 FILLER_18_55
*538 FILLER_18_66
*539 FILLER_18_78
*540 FILLER_18_85
*541 FILLER_18_97
*542 FILLER_19_106
*543 FILLER_19_113
*544 FILLER_19_125
*545 FILLER_19_13
*546 FILLER_19_137
*547 FILLER_19_149
*548 FILLER_19_161
*549 FILLER_19_167
*550 FILLER_19_169
*551 FILLER_19_181
*552 FILLER_19_193
*553 FILLER_19_205
*554 FILLER_19_217
*555 FILLER_19_223
*556 FILLER_19_225
*557 FILLER_19_237
*558 FILLER_19_24
*559 FILLER_19_249
*560 FILLER_19_261
*561 FILLER_19_273
*562 FILLER_19_279
*563 FILLER_19_28
*564 FILLER_19_281
*565 FILLER_19_293
*566 FILLER_19_3
*567 FILLER_19_37
*568 FILLER_19_45
*569 FILLER_19_52
*570 FILLER_19_57
*571 FILLER_19_62
*572 FILLER_19_69
*573 FILLER_19_82
*574 FILLER_19_94
*575 FILLER_1_107
*576 FILLER_1_111
*577 FILLER_1_113
*578 FILLER_1_125
*579 FILLER_1_137
*580 FILLER_1_149
*581 FILLER_1_15
*582 FILLER_1_161
*583 FILLER_1_167
*584 FILLER_1_169
*585 FILLER_1_181
*586 FILLER_1_193
*587 FILLER_1_205
*588 FILLER_1_217
*589 FILLER_1_223
*590 FILLER_1_225
*591 FILLER_1_237
*592 FILLER_1_249
*593 FILLER_1_261
*594 FILLER_1_273
*595 FILLER_1_279
*596 FILLER_1_281
*597 FILLER_1_293
*598 FILLER_1_3
*599 FILLER_1_36
*600 FILLER_1_44
*601 FILLER_1_54
*602 FILLER_1_57
*603 FILLER_1_75
*604 FILLER_1_95
*605 FILLER_20_10
*606 FILLER_20_104
*607 FILLER_20_115
*608 FILLER_20_127
*609 FILLER_20_139
*610 FILLER_20_141
*611 FILLER_20_153
*612 FILLER_20_16
*613 FILLER_20_165
*614 FILLER_20_177
*615 FILLER_20_189
*616 FILLER_20_195
*617 FILLER_20_197
*618 FILLER_20_209
*619 FILLER_20_221
*620 FILLER_20_23
*621 FILLER_20_233
*622 FILLER_20_245
*623 FILLER_20_251
*624 FILLER_20_253
*625 FILLER_20_265
*626 FILLER_20_27
*627 FILLER_20_277
*628 FILLER_20_289
*629 FILLER_20_29
*630 FILLER_20_297
*631 FILLER_20_3
*632 FILLER_20_35
*633 FILLER_20_43
*634 FILLER_20_56
*635 FILLER_20_68
*636 FILLER_20_75
*637 FILLER_20_82
*638 FILLER_20_85
*639 FILLER_20_92
*640 FILLER_21_109
*641 FILLER_21_113
*642 FILLER_21_12
*643 FILLER_21_121
*644 FILLER_21_131
*645 FILLER_21_151
*646 FILLER_21_163
*647 FILLER_21_167
*648 FILLER_21_169
*649 FILLER_21_181
*650 FILLER_21_193
*651 FILLER_21_20
*652 FILLER_21_205
*653 FILLER_21_217
*654 FILLER_21_223
*655 FILLER_21_225
*656 FILLER_21_237
*657 FILLER_21_24
*658 FILLER_21_249
*659 FILLER_21_261
*660 FILLER_21_273
*661 FILLER_21_279
*662 FILLER_21_28
*663 FILLER_21_281
*664 FILLER_21_293
*665 FILLER_21_3
*666 FILLER_21_35
*667 FILLER_21_47
*668 FILLER_21_54
*669 FILLER_21_57
*670 FILLER_21_62
*671 FILLER_21_73
*672 FILLER_21_85
*673 FILLER_21_97
*674 FILLER_22_109
*675 FILLER_22_113
*676 FILLER_22_117
*677 FILLER_22_125
*678 FILLER_22_13
*679 FILLER_22_132
*680 FILLER_22_141
*681 FILLER_22_153
*682 FILLER_22_164
*683 FILLER_22_176
*684 FILLER_22_188
*685 FILLER_22_197
*686 FILLER_22_209
*687 FILLER_22_221
*688 FILLER_22_233
*689 FILLER_22_24
*690 FILLER_22_245
*691 FILLER_22_251
*692 FILLER_22_253
*693 FILLER_22_265
*694 FILLER_22_277
*695 FILLER_22_289
*696 FILLER_22_29
*697 FILLER_22_297
*698 FILLER_22_3
*699 FILLER_22_34
*700 FILLER_22_40
*701 FILLER_22_49
*702 FILLER_22_57
*703 FILLER_22_66
*704 FILLER_22_78
*705 FILLER_22_85
*706 FILLER_22_97
*707 FILLER_23_100
*708 FILLER_23_113
*709 FILLER_23_120
*710 FILLER_23_132
*711 FILLER_23_144
*712 FILLER_23_156
*713 FILLER_23_169
*714 FILLER_23_18
*715 FILLER_23_181
*716 FILLER_23_193
*717 FILLER_23_205
*718 FILLER_23_217
*719 FILLER_23_223
*720 FILLER_23_225
*721 FILLER_23_237
*722 FILLER_23_249
*723 FILLER_23_261
*724 FILLER_23_273
*725 FILLER_23_279
*726 FILLER_23_281
*727 FILLER_23_293
*728 FILLER_23_3
*729 FILLER_23_31
*730 FILLER_23_39
*731 FILLER_23_45
*732 FILLER_23_49
*733 FILLER_23_53
*734 FILLER_23_57
*735 FILLER_23_64
*736 FILLER_23_76
*737 FILLER_23_88
*738 FILLER_23_9
*739 FILLER_24_106
*740 FILLER_24_114
*741 FILLER_24_119
*742 FILLER_24_131
*743 FILLER_24_139
*744 FILLER_24_141
*745 FILLER_24_15
*746 FILLER_24_153
*747 FILLER_24_165
*748 FILLER_24_177
*749 FILLER_24_189
*750 FILLER_24_195
*751 FILLER_24_197
*752 FILLER_24_209
*753 FILLER_24_221
*754 FILLER_24_23
*755 FILLER_24_233
*756 FILLER_24_245
*757 FILLER_24_251
*758 FILLER_24_253
*759 FILLER_24_265
*760 FILLER_24_27
*761 FILLER_24_277
*762 FILLER_24_289
*763 FILLER_24_29
*764 FILLER_24_297
*765 FILLER_24_3
*766 FILLER_24_42
*767 FILLER_24_51
*768 FILLER_24_58
*769 FILLER_24_67
*770 FILLER_24_71
*771 FILLER_24_77
*772 FILLER_24_83
*773 FILLER_24_85
*774 FILLER_24_96
*775 FILLER_25_107
*776 FILLER_25_11
*777 FILLER_25_111
*778 FILLER_25_113
*779 FILLER_25_118
*780 FILLER_25_130
*781 FILLER_25_142
*782 FILLER_25_154
*783 FILLER_25_166
*784 FILLER_25_169
*785 FILLER_25_181
*786 FILLER_25_19
*787 FILLER_25_193
*788 FILLER_25_205
*789 FILLER_25_217
*790 FILLER_25_223
*791 FILLER_25_225
*792 FILLER_25_237
*793 FILLER_25_249
*794 FILLER_25_25
*795 FILLER_25_261
*796 FILLER_25_273
*797 FILLER_25_279
*798 FILLER_25_281
*799 FILLER_25_293
*800 FILLER_25_3
*801 FILLER_25_34
*802 FILLER_25_38
*803 FILLER_25_44
*804 FILLER_25_57
*805 FILLER_25_62
*806 FILLER_25_72
*807 FILLER_25_83
*808 FILLER_25_95
*809 FILLER_26_10
*810 FILLER_26_109
*811 FILLER_26_121
*812 FILLER_26_133
*813 FILLER_26_139
*814 FILLER_26_141
*815 FILLER_26_153
*816 FILLER_26_165
*817 FILLER_26_17
*818 FILLER_26_177
*819 FILLER_26_189
*820 FILLER_26_195
*821 FILLER_26_197
*822 FILLER_26_209
*823 FILLER_26_221
*824 FILLER_26_233
*825 FILLER_26_24
*826 FILLER_26_245
*827 FILLER_26_251
*828 FILLER_26_253
*829 FILLER_26_265
*830 FILLER_26_277
*831 FILLER_26_289
*832 FILLER_26_29
*833 FILLER_26_297
*834 FILLER_26_3
*835 FILLER_26_37
*836 FILLER_26_44
*837 FILLER_26_48
*838 FILLER_26_54
*839 FILLER_26_60
*840 FILLER_26_66
*841 FILLER_26_75
*842 FILLER_26_82
*843 FILLER_26_85
*844 FILLER_26_97
*845 FILLER_27_100
*846 FILLER_27_113
*847 FILLER_27_12
*848 FILLER_27_122
*849 FILLER_27_134
*850 FILLER_27_146
*851 FILLER_27_158
*852 FILLER_27_166
*853 FILLER_27_169
*854 FILLER_27_181
*855 FILLER_27_193
*856 FILLER_27_205
*857 FILLER_27_217
*858 FILLER_27_223
*859 FILLER_27_225
*860 FILLER_27_237
*861 FILLER_27_24
*862 FILLER_27_249
*863 FILLER_27_261
*864 FILLER_27_273
*865 FILLER_27_279
*866 FILLER_27_281
*867 FILLER_27_293
*868 FILLER_27_3
*869 FILLER_27_37
*870 FILLER_27_44
*871 FILLER_27_57
*872 FILLER_27_65
*873 FILLER_27_78
*874 FILLER_27_82
*875 FILLER_27_90
*876 FILLER_28_109
*877 FILLER_28_121
*878 FILLER_28_133
*879 FILLER_28_139
*880 FILLER_28_141
*881 FILLER_28_15
*882 FILLER_28_153
*883 FILLER_28_165
*884 FILLER_28_177
*885 FILLER_28_189
*886 FILLER_28_195
*887 FILLER_28_197
*888 FILLER_28_209
*889 FILLER_28_221
*890 FILLER_28_233
*891 FILLER_28_245
*892 FILLER_28_251
*893 FILLER_28_253
*894 FILLER_28_265
*895 FILLER_28_27
*896 FILLER_28_277
*897 FILLER_28_289
*898 FILLER_28_29
*899 FILLER_28_297
*900 FILLER_28_3
*901 FILLER_28_41
*902 FILLER_28_53
*903 FILLER_28_65
*904 FILLER_28_73
*905 FILLER_28_81
*906 FILLER_28_85
*907 FILLER_28_97
*908 FILLER_29_101
*909 FILLER_29_109
*910 FILLER_29_113
*911 FILLER_29_125
*912 FILLER_29_137
*913 FILLER_29_149
*914 FILLER_29_15
*915 FILLER_29_161
*916 FILLER_29_167
*917 FILLER_29_169
*918 FILLER_29_181
*919 FILLER_29_193
*920 FILLER_29_205
*921 FILLER_29_217
*922 FILLER_29_223
*923 FILLER_29_225
*924 FILLER_29_237
*925 FILLER_29_249
*926 FILLER_29_261
*927 FILLER_29_27
*928 FILLER_29_273
*929 FILLER_29_279
*930 FILLER_29_281
*931 FILLER_29_293
*932 FILLER_29_3
*933 FILLER_29_39
*934 FILLER_29_51
*935 FILLER_29_55
*936 FILLER_29_57
*937 FILLER_29_69
*938 FILLER_29_81
*939 FILLER_29_93
*940 FILLER_2_109
*941 FILLER_2_121
*942 FILLER_2_133
*943 FILLER_2_139
*944 FILLER_2_141
*945 FILLER_2_153
*946 FILLER_2_165
*947 FILLER_2_177
*948 FILLER_2_189
*949 FILLER_2_195
*950 FILLER_2_197
*951 FILLER_2_209
*952 FILLER_2_22
*953 FILLER_2_221
*954 FILLER_2_233
*955 FILLER_2_245
*956 FILLER_2_251
*957 FILLER_2_253
*958 FILLER_2_265
*959 FILLER_2_277
*960 FILLER_2_289
*961 FILLER_2_29
*962 FILLER_2_297
*963 FILLER_2_3
*964 FILLER_2_33
*965 FILLER_2_50
*966 FILLER_2_70
*967 FILLER_2_81
*968 FILLER_2_85
*969 FILLER_2_97
*970 FILLER_30_110
*971 FILLER_30_122
*972 FILLER_30_134
*973 FILLER_30_141
*974 FILLER_30_15
*975 FILLER_30_153
*976 FILLER_30_165
*977 FILLER_30_177
*978 FILLER_30_189
*979 FILLER_30_195
*980 FILLER_30_197
*981 FILLER_30_209
*982 FILLER_30_221
*983 FILLER_30_233
*984 FILLER_30_245
*985 FILLER_30_251
*986 FILLER_30_253
*987 FILLER_30_265
*988 FILLER_30_27
*989 FILLER_30_277
*990 FILLER_30_289
*991 FILLER_30_29
*992 FILLER_30_297
*993 FILLER_30_3
*994 FILLER_30_41
*995 FILLER_30_53
*996 FILLER_30_65
*997 FILLER_30_77
*998 FILLER_30_83
*999 FILLER_30_85
*1000 FILLER_30_93
*1001 FILLER_30_98
*1002 FILLER_31_107
*1003 FILLER_31_111
*1004 FILLER_31_113
*1005 FILLER_31_125
*1006 FILLER_31_137
*1007 FILLER_31_149
*1008 FILLER_31_15
*1009 FILLER_31_161
*1010 FILLER_31_167
*1011 FILLER_31_169
*1012 FILLER_31_181
*1013 FILLER_31_193
*1014 FILLER_31_205
*1015 FILLER_31_217
*1016 FILLER_31_223
*1017 FILLER_31_225
*1018 FILLER_31_237
*1019 FILLER_31_249
*1020 FILLER_31_261
*1021 FILLER_31_27
*1022 FILLER_31_273
*1023 FILLER_31_279
*1024 FILLER_31_281
*1025 FILLER_31_293
*1026 FILLER_31_3
*1027 FILLER_31_39
*1028 FILLER_31_51
*1029 FILLER_31_55
*1030 FILLER_31_57
*1031 FILLER_31_65
*1032 FILLER_31_72
*1033 FILLER_31_84
*1034 FILLER_31_96
*1035 FILLER_32_109
*1036 FILLER_32_120
*1037 FILLER_32_132
*1038 FILLER_32_141
*1039 FILLER_32_15
*1040 FILLER_32_153
*1041 FILLER_32_165
*1042 FILLER_32_177
*1043 FILLER_32_189
*1044 FILLER_32_195
*1045 FILLER_32_197
*1046 FILLER_32_209
*1047 FILLER_32_221
*1048 FILLER_32_233
*1049 FILLER_32_245
*1050 FILLER_32_251
*1051 FILLER_32_253
*1052 FILLER_32_265
*1053 FILLER_32_27
*1054 FILLER_32_277
*1055 FILLER_32_289
*1056 FILLER_32_29
*1057 FILLER_32_297
*1058 FILLER_32_3
*1059 FILLER_32_41
*1060 FILLER_32_53
*1061 FILLER_32_65
*1062 FILLER_32_77
*1063 FILLER_32_83
*1064 FILLER_32_85
*1065 FILLER_32_97
*1066 FILLER_33_105
*1067 FILLER_33_111
*1068 FILLER_33_113
*1069 FILLER_33_125
*1070 FILLER_33_137
*1071 FILLER_33_149
*1072 FILLER_33_15
*1073 FILLER_33_161
*1074 FILLER_33_167
*1075 FILLER_33_169
*1076 FILLER_33_181
*1077 FILLER_33_193
*1078 FILLER_33_205
*1079 FILLER_33_217
*1080 FILLER_33_223
*1081 FILLER_33_225
*1082 FILLER_33_237
*1083 FILLER_33_249
*1084 FILLER_33_261
*1085 FILLER_33_27
*1086 FILLER_33_273
*1087 FILLER_33_279
*1088 FILLER_33_281
*1089 FILLER_33_293
*1090 FILLER_33_3
*1091 FILLER_33_35
*1092 FILLER_33_40
*1093 FILLER_33_52
*1094 FILLER_33_57
*1095 FILLER_33_63
*1096 FILLER_33_69
*1097 FILLER_33_81
*1098 FILLER_33_93
*1099 FILLER_34_109
*1100 FILLER_34_121
*1101 FILLER_34_133
*1102 FILLER_34_139
*1103 FILLER_34_141
*1104 FILLER_34_15
*1105 FILLER_34_153
*1106 FILLER_34_165
*1107 FILLER_34_177
*1108 FILLER_34_189
*1109 FILLER_34_195
*1110 FILLER_34_197
*1111 FILLER_34_209
*1112 FILLER_34_221
*1113 FILLER_34_233
*1114 FILLER_34_245
*1115 FILLER_34_251
*1116 FILLER_34_253
*1117 FILLER_34_265
*1118 FILLER_34_27
*1119 FILLER_34_277
*1120 FILLER_34_289
*1121 FILLER_34_29
*1122 FILLER_34_297
*1123 FILLER_34_3
*1124 FILLER_34_41
*1125 FILLER_34_53
*1126 FILLER_34_65
*1127 FILLER_34_73
*1128 FILLER_34_81
*1129 FILLER_34_85
*1130 FILLER_34_97
*1131 FILLER_35_105
*1132 FILLER_35_111
*1133 FILLER_35_113
*1134 FILLER_35_125
*1135 FILLER_35_137
*1136 FILLER_35_149
*1137 FILLER_35_15
*1138 FILLER_35_161
*1139 FILLER_35_167
*1140 FILLER_35_169
*1141 FILLER_35_181
*1142 FILLER_35_193
*1143 FILLER_35_205
*1144 FILLER_35_217
*1145 FILLER_35_223
*1146 FILLER_35_225
*1147 FILLER_35_237
*1148 FILLER_35_249
*1149 FILLER_35_261
*1150 FILLER_35_27
*1151 FILLER_35_273
*1152 FILLER_35_279
*1153 FILLER_35_281
*1154 FILLER_35_293
*1155 FILLER_35_3
*1156 FILLER_35_39
*1157 FILLER_35_51
*1158 FILLER_35_55
*1159 FILLER_35_57
*1160 FILLER_35_69
*1161 FILLER_35_81
*1162 FILLER_35_93
*1163 FILLER_36_109
*1164 FILLER_36_121
*1165 FILLER_36_133
*1166 FILLER_36_139
*1167 FILLER_36_141
*1168 FILLER_36_15
*1169 FILLER_36_153
*1170 FILLER_36_165
*1171 FILLER_36_177
*1172 FILLER_36_189
*1173 FILLER_36_195
*1174 FILLER_36_197
*1175 FILLER_36_209
*1176 FILLER_36_221
*1177 FILLER_36_233
*1178 FILLER_36_245
*1179 FILLER_36_251
*1180 FILLER_36_253
*1181 FILLER_36_265
*1182 FILLER_36_27
*1183 FILLER_36_277
*1184 FILLER_36_289
*1185 FILLER_36_29
*1186 FILLER_36_297
*1187 FILLER_36_3
*1188 FILLER_36_41
*1189 FILLER_36_53
*1190 FILLER_36_65
*1191 FILLER_36_77
*1192 FILLER_36_83
*1193 FILLER_36_85
*1194 FILLER_36_97
*1195 FILLER_37_105
*1196 FILLER_37_111
*1197 FILLER_37_113
*1198 FILLER_37_125
*1199 FILLER_37_137
*1200 FILLER_37_149
*1201 FILLER_37_15
*1202 FILLER_37_161
*1203 FILLER_37_167
*1204 FILLER_37_169
*1205 FILLER_37_181
*1206 FILLER_37_193
*1207 FILLER_37_205
*1208 FILLER_37_217
*1209 FILLER_37_223
*1210 FILLER_37_225
*1211 FILLER_37_237
*1212 FILLER_37_249
*1213 FILLER_37_261
*1214 FILLER_37_27
*1215 FILLER_37_273
*1216 FILLER_37_279
*1217 FILLER_37_281
*1218 FILLER_37_293
*1219 FILLER_37_3
*1220 FILLER_37_39
*1221 FILLER_37_47
*1222 FILLER_37_52
*1223 FILLER_37_57
*1224 FILLER_37_69
*1225 FILLER_37_81
*1226 FILLER_37_93
*1227 FILLER_38_109
*1228 FILLER_38_121
*1229 FILLER_38_133
*1230 FILLER_38_139
*1231 FILLER_38_141
*1232 FILLER_38_15
*1233 FILLER_38_153
*1234 FILLER_38_165
*1235 FILLER_38_177
*1236 FILLER_38_189
*1237 FILLER_38_195
*1238 FILLER_38_197
*1239 FILLER_38_209
*1240 FILLER_38_221
*1241 FILLER_38_233
*1242 FILLER_38_245
*1243 FILLER_38_251
*1244 FILLER_38_253
*1245 FILLER_38_265
*1246 FILLER_38_27
*1247 FILLER_38_277
*1248 FILLER_38_289
*1249 FILLER_38_29
*1250 FILLER_38_297
*1251 FILLER_38_3
*1252 FILLER_38_41
*1253 FILLER_38_53
*1254 FILLER_38_61
*1255 FILLER_38_69
*1256 FILLER_38_81
*1257 FILLER_38_85
*1258 FILLER_38_97
*1259 FILLER_39_105
*1260 FILLER_39_111
*1261 FILLER_39_113
*1262 FILLER_39_125
*1263 FILLER_39_137
*1264 FILLER_39_149
*1265 FILLER_39_15
*1266 FILLER_39_161
*1267 FILLER_39_167
*1268 FILLER_39_169
*1269 FILLER_39_181
*1270 FILLER_39_193
*1271 FILLER_39_205
*1272 FILLER_39_217
*1273 FILLER_39_223
*1274 FILLER_39_225
*1275 FILLER_39_237
*1276 FILLER_39_249
*1277 FILLER_39_261
*1278 FILLER_39_27
*1279 FILLER_39_273
*1280 FILLER_39_279
*1281 FILLER_39_281
*1282 FILLER_39_293
*1283 FILLER_39_3
*1284 FILLER_39_39
*1285 FILLER_39_51
*1286 FILLER_39_55
*1287 FILLER_39_57
*1288 FILLER_39_69
*1289 FILLER_39_81
*1290 FILLER_39_93
*1291 FILLER_3_101
*1292 FILLER_3_109
*1293 FILLER_3_113
*1294 FILLER_3_125
*1295 FILLER_3_137
*1296 FILLER_3_149
*1297 FILLER_3_15
*1298 FILLER_3_161
*1299 FILLER_3_167
*1300 FILLER_3_169
*1301 FILLER_3_181
*1302 FILLER_3_193
*1303 FILLER_3_205
*1304 FILLER_3_217
*1305 FILLER_3_223
*1306 FILLER_3_225
*1307 FILLER_3_237
*1308 FILLER_3_249
*1309 FILLER_3_261
*1310 FILLER_3_273
*1311 FILLER_3_279
*1312 FILLER_3_281
*1313 FILLER_3_293
*1314 FILLER_3_3
*1315 FILLER_3_34
*1316 FILLER_3_54
*1317 FILLER_3_57
*1318 FILLER_3_75
*1319 FILLER_3_89
*1320 FILLER_40_109
*1321 FILLER_40_121
*1322 FILLER_40_133
*1323 FILLER_40_139
*1324 FILLER_40_141
*1325 FILLER_40_15
*1326 FILLER_40_153
*1327 FILLER_40_165
*1328 FILLER_40_177
*1329 FILLER_40_189
*1330 FILLER_40_195
*1331 FILLER_40_197
*1332 FILLER_40_209
*1333 FILLER_40_221
*1334 FILLER_40_233
*1335 FILLER_40_245
*1336 FILLER_40_251
*1337 FILLER_40_253
*1338 FILLER_40_265
*1339 FILLER_40_27
*1340 FILLER_40_277
*1341 FILLER_40_289
*1342 FILLER_40_29
*1343 FILLER_40_297
*1344 FILLER_40_3
*1345 FILLER_40_41
*1346 FILLER_40_53
*1347 FILLER_40_65
*1348 FILLER_40_77
*1349 FILLER_40_83
*1350 FILLER_40_85
*1351 FILLER_40_97
*1352 FILLER_41_105
*1353 FILLER_41_111
*1354 FILLER_41_113
*1355 FILLER_41_125
*1356 FILLER_41_137
*1357 FILLER_41_149
*1358 FILLER_41_15
*1359 FILLER_41_161
*1360 FILLER_41_167
*1361 FILLER_41_169
*1362 FILLER_41_181
*1363 FILLER_41_193
*1364 FILLER_41_205
*1365 FILLER_41_217
*1366 FILLER_41_223
*1367 FILLER_41_225
*1368 FILLER_41_237
*1369 FILLER_41_249
*1370 FILLER_41_261
*1371 FILLER_41_27
*1372 FILLER_41_273
*1373 FILLER_41_279
*1374 FILLER_41_281
*1375 FILLER_41_293
*1376 FILLER_41_3
*1377 FILLER_41_39
*1378 FILLER_41_51
*1379 FILLER_41_55
*1380 FILLER_41_57
*1381 FILLER_41_69
*1382 FILLER_41_81
*1383 FILLER_41_93
*1384 FILLER_42_109
*1385 FILLER_42_121
*1386 FILLER_42_133
*1387 FILLER_42_139
*1388 FILLER_42_141
*1389 FILLER_42_153
*1390 FILLER_42_165
*1391 FILLER_42_177
*1392 FILLER_42_189
*1393 FILLER_42_195
*1394 FILLER_42_197
*1395 FILLER_42_20
*1396 FILLER_42_209
*1397 FILLER_42_221
*1398 FILLER_42_233
*1399 FILLER_42_245
*1400 FILLER_42_251
*1401 FILLER_42_253
*1402 FILLER_42_265
*1403 FILLER_42_277
*1404 FILLER_42_289
*1405 FILLER_42_29
*1406 FILLER_42_297
*1407 FILLER_42_3
*1408 FILLER_42_41
*1409 FILLER_42_53
*1410 FILLER_42_65
*1411 FILLER_42_77
*1412 FILLER_42_8
*1413 FILLER_42_83
*1414 FILLER_42_85
*1415 FILLER_42_97
*1416 FILLER_43_105
*1417 FILLER_43_111
*1418 FILLER_43_113
*1419 FILLER_43_125
*1420 FILLER_43_137
*1421 FILLER_43_149
*1422 FILLER_43_15
*1423 FILLER_43_161
*1424 FILLER_43_167
*1425 FILLER_43_169
*1426 FILLER_43_181
*1427 FILLER_43_193
*1428 FILLER_43_205
*1429 FILLER_43_217
*1430 FILLER_43_223
*1431 FILLER_43_225
*1432 FILLER_43_237
*1433 FILLER_43_249
*1434 FILLER_43_261
*1435 FILLER_43_27
*1436 FILLER_43_273
*1437 FILLER_43_279
*1438 FILLER_43_281
*1439 FILLER_43_293
*1440 FILLER_43_3
*1441 FILLER_43_39
*1442 FILLER_43_51
*1443 FILLER_43_55
*1444 FILLER_43_57
*1445 FILLER_43_69
*1446 FILLER_43_81
*1447 FILLER_43_93
*1448 FILLER_44_109
*1449 FILLER_44_121
*1450 FILLER_44_133
*1451 FILLER_44_139
*1452 FILLER_44_141
*1453 FILLER_44_15
*1454 FILLER_44_153
*1455 FILLER_44_165
*1456 FILLER_44_177
*1457 FILLER_44_189
*1458 FILLER_44_195
*1459 FILLER_44_197
*1460 FILLER_44_209
*1461 FILLER_44_221
*1462 FILLER_44_233
*1463 FILLER_44_245
*1464 FILLER_44_251
*1465 FILLER_44_253
*1466 FILLER_44_265
*1467 FILLER_44_27
*1468 FILLER_44_277
*1469 FILLER_44_289
*1470 FILLER_44_29
*1471 FILLER_44_297
*1472 FILLER_44_3
*1473 FILLER_44_41
*1474 FILLER_44_53
*1475 FILLER_44_65
*1476 FILLER_44_77
*1477 FILLER_44_83
*1478 FILLER_44_85
*1479 FILLER_44_97
*1480 FILLER_45_101
*1481 FILLER_45_109
*1482 FILLER_45_113
*1483 FILLER_45_125
*1484 FILLER_45_137
*1485 FILLER_45_149
*1486 FILLER_45_15
*1487 FILLER_45_161
*1488 FILLER_45_167
*1489 FILLER_45_169
*1490 FILLER_45_181
*1491 FILLER_45_193
*1492 FILLER_45_205
*1493 FILLER_45_217
*1494 FILLER_45_223
*1495 FILLER_45_225
*1496 FILLER_45_237
*1497 FILLER_45_249
*1498 FILLER_45_261
*1499 FILLER_45_27
*1500 FILLER_45_273
*1501 FILLER_45_279
*1502 FILLER_45_281
*1503 FILLER_45_293
*1504 FILLER_45_3
*1505 FILLER_45_39
*1506 FILLER_45_51
*1507 FILLER_45_55
*1508 FILLER_45_57
*1509 FILLER_45_65
*1510 FILLER_45_77
*1511 FILLER_45_89
*1512 FILLER_46_109
*1513 FILLER_46_121
*1514 FILLER_46_133
*1515 FILLER_46_139
*1516 FILLER_46_141
*1517 FILLER_46_153
*1518 FILLER_46_165
*1519 FILLER_46_177
*1520 FILLER_46_189
*1521 FILLER_46_195
*1522 FILLER_46_197
*1523 FILLER_46_20
*1524 FILLER_46_209
*1525 FILLER_46_221
*1526 FILLER_46_233
*1527 FILLER_46_245
*1528 FILLER_46_251
*1529 FILLER_46_253
*1530 FILLER_46_265
*1531 FILLER_46_277
*1532 FILLER_46_289
*1533 FILLER_46_29
*1534 FILLER_46_297
*1535 FILLER_46_3
*1536 FILLER_46_41
*1537 FILLER_46_53
*1538 FILLER_46_65
*1539 FILLER_46_77
*1540 FILLER_46_8
*1541 FILLER_46_83
*1542 FILLER_46_85
*1543 FILLER_46_97
*1544 FILLER_47_105
*1545 FILLER_47_111
*1546 FILLER_47_113
*1547 FILLER_47_125
*1548 FILLER_47_137
*1549 FILLER_47_149
*1550 FILLER_47_15
*1551 FILLER_47_161
*1552 FILLER_47_167
*1553 FILLER_47_169
*1554 FILLER_47_181
*1555 FILLER_47_193
*1556 FILLER_47_205
*1557 FILLER_47_217
*1558 FILLER_47_223
*1559 FILLER_47_225
*1560 FILLER_47_237
*1561 FILLER_47_249
*1562 FILLER_47_261
*1563 FILLER_47_27
*1564 FILLER_47_273
*1565 FILLER_47_279
*1566 FILLER_47_281
*1567 FILLER_47_293
*1568 FILLER_47_3
*1569 FILLER_47_39
*1570 FILLER_47_51
*1571 FILLER_47_55
*1572 FILLER_47_57
*1573 FILLER_47_69
*1574 FILLER_47_81
*1575 FILLER_47_93
*1576 FILLER_48_109
*1577 FILLER_48_121
*1578 FILLER_48_133
*1579 FILLER_48_139
*1580 FILLER_48_141
*1581 FILLER_48_15
*1582 FILLER_48_153
*1583 FILLER_48_165
*1584 FILLER_48_177
*1585 FILLER_48_189
*1586 FILLER_48_195
*1587 FILLER_48_197
*1588 FILLER_48_209
*1589 FILLER_48_221
*1590 FILLER_48_233
*1591 FILLER_48_245
*1592 FILLER_48_251
*1593 FILLER_48_253
*1594 FILLER_48_265
*1595 FILLER_48_27
*1596 FILLER_48_277
*1597 FILLER_48_289
*1598 FILLER_48_29
*1599 FILLER_48_297
*1600 FILLER_48_3
*1601 FILLER_48_41
*1602 FILLER_48_53
*1603 FILLER_48_65
*1604 FILLER_48_77
*1605 FILLER_48_83
*1606 FILLER_48_85
*1607 FILLER_48_97
*1608 FILLER_49_105
*1609 FILLER_49_111
*1610 FILLER_49_113
*1611 FILLER_49_125
*1612 FILLER_49_137
*1613 FILLER_49_149
*1614 FILLER_49_15
*1615 FILLER_49_161
*1616 FILLER_49_167
*1617 FILLER_49_169
*1618 FILLER_49_181
*1619 FILLER_49_193
*1620 FILLER_49_205
*1621 FILLER_49_217
*1622 FILLER_49_223
*1623 FILLER_49_225
*1624 FILLER_49_237
*1625 FILLER_49_249
*1626 FILLER_49_261
*1627 FILLER_49_27
*1628 FILLER_49_273
*1629 FILLER_49_279
*1630 FILLER_49_281
*1631 FILLER_49_293
*1632 FILLER_49_3
*1633 FILLER_49_39
*1634 FILLER_49_51
*1635 FILLER_49_55
*1636 FILLER_49_57
*1637 FILLER_49_69
*1638 FILLER_49_81
*1639 FILLER_49_93
*1640 FILLER_4_109
*1641 FILLER_4_121
*1642 FILLER_4_133
*1643 FILLER_4_139
*1644 FILLER_4_141
*1645 FILLER_4_153
*1646 FILLER_4_165
*1647 FILLER_4_177
*1648 FILLER_4_189
*1649 FILLER_4_195
*1650 FILLER_4_197