*SPEF "ieee 1481-1999"
*DESIGN "adder"
*DATE "11:11:11 Fri 11 11, 1111"
*VENDOR "OpenRCX"
*PROGRAM "Parallel Extraction"
*VERSION "1.0"
*DESIGN_FLOW "NAME_SCOPE LOCAL" "PIN_CAP NONE"
*DIVIDER /
*DELIMITER :
*BUS_DELIMITER []
*T_UNIT 1 NS
*C_UNIT 1 PF
*R_UNIT 1 OHM
*L_UNIT 1 HENRY

*NAME_MAP
*1 io_in[0]
*2 io_in[1]
*3 io_in[2]
*4 io_in[3]
*5 io_in[4]
*6 io_in[5]
*7 io_in[6]
*8 io_in[7]
*9 net8
*10 net9
*11 net10
*12 io_out[3]
*13 io_out[4]
*14 io_out[5]
*15 io_out[6]
*16 io_out[7]
*19 _00_
*20 _01_
*21 _02_
*22 _03_
*23 _04_
*24 _05_
*25 _06_
*26 _07_
*27 _08_
*28 _09_
*29 _10_
*30 _11_
*31 _12_
*32 _13_
*33 _14_
*34 clknet_0__03_
*35 clknet_0__05_
*36 clknet_0__08_
*37 clknet_0_io_in[0]
*38 clknet_1_0__leaf__03_
*39 clknet_1_0__leaf__05_
*40 clknet_1_0__leaf__08_
*41 clknet_1_0__leaf_io_in[0]
*42 clknet_1_1__leaf__03_
*43 clknet_1_1__leaf__05_
*44 clknet_1_1__leaf__08_
*45 clknet_1_1__leaf_io_in[0]
*46 fa_f\:1\.fa_i\._0_
*47 fa_f\:2\.fa_i\._1_
*48 fa_f\:3\.fa_i\._1_
*49 fa_f\:4\.fa_i\._1_
*50 fa_f\:4\.fa_i\._6_
*51 net1
*52 net2
*53 net3
*54 net4
*55 net5
*56 net6
*57 net7
*58 FILLER_0_109
*59 FILLER_0_113
*60 FILLER_0_125
*61 FILLER_0_137
*62 FILLER_0_141
*63 FILLER_0_15
*64 FILLER_0_153
*65 FILLER_0_165
*66 FILLER_0_169
*67 FILLER_0_181
*68 FILLER_0_193
*69 FILLER_0_197
*70 FILLER_0_209
*71 FILLER_0_221
*72 FILLER_0_225
*73 FILLER_0_237
*74 FILLER_0_249
*75 FILLER_0_253
*76 FILLER_0_265
*77 FILLER_0_27
*78 FILLER_0_277
*79 FILLER_0_281
*80 FILLER_0_29
*81 FILLER_0_293
*82 FILLER_0_3
*83 FILLER_0_41
*84 FILLER_0_53
*85 FILLER_0_57
*86 FILLER_0_69
*87 FILLER_0_81
*88 FILLER_0_85
*89 FILLER_0_97
*90 FILLER_10_109
*91 FILLER_10_121
*92 FILLER_10_133
*93 FILLER_10_139
*94 FILLER_10_141
*95 FILLER_10_15
*96 FILLER_10_153
*97 FILLER_10_165
*98 FILLER_10_177
*99 FILLER_10_189
*100 FILLER_10_195
*101 FILLER_10_197
*102 FILLER_10_209
*103 FILLER_10_221
*104 FILLER_10_233
*105 FILLER_10_245
*106 FILLER_10_251
*107 FILLER_10_253
*108 FILLER_10_265
*109 FILLER_10_27
*110 FILLER_10_277
*111 FILLER_10_289
*112 FILLER_10_29
*113 FILLER_10_297
*114 FILLER_10_3
*115 FILLER_10_41
*116 FILLER_10_53
*117 FILLER_10_65
*118 FILLER_10_77
*119 FILLER_10_83
*120 FILLER_10_85
*121 FILLER_10_97
*122 FILLER_11_105
*123 FILLER_11_111
*124 FILLER_11_113
*125 FILLER_11_125
*126 FILLER_11_137
*127 FILLER_11_149
*128 FILLER_11_15
*129 FILLER_11_161
*130 FILLER_11_167
*131 FILLER_11_169
*132 FILLER_11_181
*133 FILLER_11_193
*134 FILLER_11_205
*135 FILLER_11_217
*136 FILLER_11_223
*137 FILLER_11_225
*138 FILLER_11_237
*139 FILLER_11_249
*140 FILLER_11_261
*141 FILLER_11_27
*142 FILLER_11_273
*143 FILLER_11_279
*144 FILLER_11_281
*145 FILLER_11_293
*146 FILLER_11_3
*147 FILLER_11_39
*148 FILLER_11_51
*149 FILLER_11_55
*150 FILLER_11_57
*151 FILLER_11_69
*152 FILLER_11_81
*153 FILLER_11_93
*154 FILLER_12_109
*155 FILLER_12_121
*156 FILLER_12_133
*157 FILLER_12_139
*158 FILLER_12_141
*159 FILLER_12_153
*160 FILLER_12_165
*161 FILLER_12_177
*162 FILLER_12_189
*163 FILLER_12_195
*164 FILLER_12_197
*165 FILLER_12_20
*166 FILLER_12_209
*167 FILLER_12_221
*168 FILLER_12_233
*169 FILLER_12_245
*170 FILLER_12_251
*171 FILLER_12_253
*172 FILLER_12_265
*173 FILLER_12_277
*174 FILLER_12_289
*175 FILLER_12_29
*176 FILLER_12_297
*177 FILLER_12_3
*178 FILLER_12_41
*179 FILLER_12_53
*180 FILLER_12_65
*181 FILLER_12_77
*182 FILLER_12_8
*183 FILLER_12_83
*184 FILLER_12_85
*185 FILLER_12_97
*186 FILLER_13_105
*187 FILLER_13_111
*188 FILLER_13_113
*189 FILLER_13_125
*190 FILLER_13_137
*191 FILLER_13_149
*192 FILLER_13_15
*193 FILLER_13_161
*194 FILLER_13_167
*195 FILLER_13_169
*196 FILLER_13_181
*197 FILLER_13_193
*198 FILLER_13_205
*199 FILLER_13_217
*200 FILLER_13_223
*201 FILLER_13_225
*202 FILLER_13_237
*203 FILLER_13_249
*204 FILLER_13_261
*205 FILLER_13_27
*206 FILLER_13_273
*207 FILLER_13_279
*208 FILLER_13_281
*209 FILLER_13_293
*210 FILLER_13_3
*211 FILLER_13_39
*212 FILLER_13_51
*213 FILLER_13_55
*214 FILLER_13_57
*215 FILLER_13_69
*216 FILLER_13_81
*217 FILLER_13_93
*218 FILLER_14_109
*219 FILLER_14_121
*220 FILLER_14_133
*221 FILLER_14_139
*222 FILLER_14_141
*223 FILLER_14_15
*224 FILLER_14_153
*225 FILLER_14_165
*226 FILLER_14_177
*227 FILLER_14_189
*228 FILLER_14_195
*229 FILLER_14_197
*230 FILLER_14_209
*231 FILLER_14_221
*232 FILLER_14_233
*233 FILLER_14_245
*234 FILLER_14_251
*235 FILLER_14_253
*236 FILLER_14_265
*237 FILLER_14_27
*238 FILLER_14_277
*239 FILLER_14_289
*240 FILLER_14_29
*241 FILLER_14_297
*242 FILLER_14_3
*243 FILLER_14_41
*244 FILLER_14_53
*245 FILLER_14_65
*246 FILLER_14_77
*247 FILLER_14_83
*248 FILLER_14_85
*249 FILLER_14_97
*250 FILLER_15_105
*251 FILLER_15_111
*252 FILLER_15_113
*253 FILLER_15_125
*254 FILLER_15_137
*255 FILLER_15_149
*256 FILLER_15_15
*257 FILLER_15_161
*258 FILLER_15_167
*259 FILLER_15_169
*260 FILLER_15_181
*261 FILLER_15_193
*262 FILLER_15_205
*263 FILLER_15_217
*264 FILLER_15_223
*265 FILLER_15_225
*266 FILLER_15_237
*267 FILLER_15_249
*268 FILLER_15_261
*269 FILLER_15_27
*270 FILLER_15_273
*271 FILLER_15_279
*272 FILLER_15_281
*273 FILLER_15_293
*274 FILLER_15_3
*275 FILLER_15_39
*276 FILLER_15_51
*277 FILLER_15_55
*278 FILLER_15_57
*279 FILLER_15_69
*280 FILLER_15_81
*281 FILLER_15_93
*282 FILLER_16_109
*283 FILLER_16_121
*284 FILLER_16_133
*285 FILLER_16_139
*286 FILLER_16_141
*287 FILLER_16_15
*288 FILLER_16_153
*289 FILLER_16_165
*290 FILLER_16_177
*291 FILLER_16_189
*292 FILLER_16_195
*293 FILLER_16_197
*294 FILLER_16_209
*295 FILLER_16_221
*296 FILLER_16_233
*297 FILLER_16_245
*298 FILLER_16_251
*299 FILLER_16_253
*300 FILLER_16_265
*301 FILLER_16_27
*302 FILLER_16_277
*303 FILLER_16_289
*304 FILLER_16_29
*305 FILLER_16_297
*306 FILLER_16_3
*307 FILLER_16_41
*308 FILLER_16_53
*309 FILLER_16_65
*310 FILLER_16_77
*311 FILLER_16_83
*312 FILLER_16_85
*313 FILLER_16_97
*314 FILLER_17_105
*315 FILLER_17_111
*316 FILLER_17_113
*317 FILLER_17_125
*318 FILLER_17_137
*319 FILLER_17_149
*320 FILLER_17_15
*321 FILLER_17_161
*322 FILLER_17_167
*323 FILLER_17_169
*324 FILLER_17_181
*325 FILLER_17_193
*326 FILLER_17_205
*327 FILLER_17_217
*328 FILLER_17_223
*329 FILLER_17_225
*330 FILLER_17_237
*331 FILLER_17_249
*332 FILLER_17_261
*333 FILLER_17_27
*334 FILLER_17_273
*335 FILLER_17_279
*336 FILLER_17_281
*337 FILLER_17_293
*338 FILLER_17_3
*339 FILLER_17_39
*340 FILLER_17_51
*341 FILLER_17_55
*342 FILLER_17_57
*343 FILLER_17_69
*344 FILLER_17_81
*345 FILLER_17_93
*346 FILLER_18_109
*347 FILLER_18_121
*348 FILLER_18_133
*349 FILLER_18_139
*350 FILLER_18_141
*351 FILLER_18_15
*352 FILLER_18_153
*353 FILLER_18_165
*354 FILLER_18_177
*355 FILLER_18_189
*356 FILLER_18_195
*357 FILLER_18_197
*358 FILLER_18_209
*359 FILLER_18_221
*360 FILLER_18_233
*361 FILLER_18_245
*362 FILLER_18_251
*363 FILLER_18_253
*364 FILLER_18_265
*365 FILLER_18_27
*366 FILLER_18_277
*367 FILLER_18_289
*368 FILLER_18_29
*369 FILLER_18_297
*370 FILLER_18_3
*371 FILLER_18_41
*372 FILLER_18_53
*373 FILLER_18_65
*374 FILLER_18_77
*375 FILLER_18_83
*376 FILLER_18_85
*377 FILLER_18_97
*378 FILLER_19_105
*379 FILLER_19_111
*380 FILLER_19_113
*381 FILLER_19_125
*382 FILLER_19_137
*383 FILLER_19_149
*384 FILLER_19_161
*385 FILLER_19_167
*386 FILLER_19_169
*387 FILLER_19_181
*388 FILLER_19_193
*389 FILLER_19_20
*390 FILLER_19_205
*391 FILLER_19_217
*392 FILLER_19_223
*393 FILLER_19_225
*394 FILLER_19_237
*395 FILLER_19_249
*396 FILLER_19_261
*397 FILLER_19_273
*398 FILLER_19_279
*399 FILLER_19_281
*400 FILLER_19_293
*401 FILLER_19_3
*402 FILLER_19_32
*403 FILLER_19_44
*404 FILLER_19_57
*405 FILLER_19_69
*406 FILLER_19_8
*407 FILLER_19_81
*408 FILLER_19_93
*409 FILLER_1_105
*410 FILLER_1_111
*411 FILLER_1_113
*412 FILLER_1_125
*413 FILLER_1_137
*414 FILLER_1_149
*415 FILLER_1_15
*416 FILLER_1_161
*417 FILLER_1_167
*418 FILLER_1_169
*419 FILLER_1_181
*420 FILLER_1_193
*421 FILLER_1_205
*422 FILLER_1_217
*423 FILLER_1_223
*424 FILLER_1_225
*425 FILLER_1_237
*426 FILLER_1_249
*427 FILLER_1_261
*428 FILLER_1_27
*429 FILLER_1_273
*430 FILLER_1_279
*431 FILLER_1_281
*432 FILLER_1_293
*433 FILLER_1_3
*434 FILLER_1_39
*435 FILLER_1_51
*436 FILLER_1_55
*437 FILLER_1_57
*438 FILLER_1_69
*439 FILLER_1_81
*440 FILLER_1_93
*441 FILLER_20_10
*442 FILLER_20_109
*443 FILLER_20_121
*444 FILLER_20_133
*445 FILLER_20_139
*446 FILLER_20_141
*447 FILLER_20_153
*448 FILLER_20_165
*449 FILLER_20_177
*450 FILLER_20_189
*451 FILLER_20_195
*452 FILLER_20_197
*453 FILLER_20_209
*454 FILLER_20_22
*455 FILLER_20_221
*456 FILLER_20_233
*457 FILLER_20_245
*458 FILLER_20_251
*459 FILLER_20_253
*460 FILLER_20_265
*461 FILLER_20_277
*462 FILLER_20_289
*463 FILLER_20_29
*464 FILLER_20_297
*465 FILLER_20_3
*466 FILLER_20_41
*467 FILLER_20_53
*468 FILLER_20_65
*469 FILLER_20_77
*470 FILLER_20_83
*471 FILLER_20_85
*472 FILLER_20_97
*473 FILLER_21_10
*474 FILLER_21_105
*475 FILLER_21_111
*476 FILLER_21_113
*477 FILLER_21_125
*478 FILLER_21_137
*479 FILLER_21_149
*480 FILLER_21_161
*481 FILLER_21_167
*482 FILLER_21_169
*483 FILLER_21_17
*484 FILLER_21_181
*485 FILLER_21_193
*486 FILLER_21_205
*487 FILLER_21_217
*488 FILLER_21_223
*489 FILLER_21_225
*490 FILLER_21_237
*491 FILLER_21_249
*492 FILLER_21_261
*493 FILLER_21_273
*494 FILLER_21_279
*495 FILLER_21_281
*496 FILLER_21_29
*497 FILLER_21_293
*498 FILLER_21_3
*499 FILLER_21_41
*500 FILLER_21_53
*501 FILLER_21_57
*502 FILLER_21_69
*503 FILLER_21_81
*504 FILLER_21_93
*505 FILLER_22_10
*506 FILLER_22_109
*507 FILLER_22_121
*508 FILLER_22_133
*509 FILLER_22_139
*510 FILLER_22_141
*511 FILLER_22_153
*512 FILLER_22_165
*513 FILLER_22_177
*514 FILLER_22_189
*515 FILLER_22_195
*516 FILLER_22_197
*517 FILLER_22_209
*518 FILLER_22_22
*519 FILLER_22_221
*520 FILLER_22_233
*521 FILLER_22_245
*522 FILLER_22_251
*523 FILLER_22_253
*524 FILLER_22_265
*525 FILLER_22_277
*526 FILLER_22_289
*527 FILLER_22_29
*528 FILLER_22_297
*529 FILLER_22_3
*530 FILLER_22_41
*531 FILLER_22_53
*532 FILLER_22_65
*533 FILLER_22_77
*534 FILLER_22_83
*535 FILLER_22_85
*536 FILLER_22_97
*537 FILLER_23_105
*538 FILLER_23_11
*539 FILLER_23_111
*540 FILLER_23_113
*541 FILLER_23_125
*542 FILLER_23_137
*543 FILLER_23_149
*544 FILLER_23_161
*545 FILLER_23_167
*546 FILLER_23_169
*547 FILLER_23_18
*548 FILLER_23_181
*549 FILLER_23_193
*550 FILLER_23_205
*551 FILLER_23_217
*552 FILLER_23_223
*553 FILLER_23_225
*554 FILLER_23_237
*555 FILLER_23_249
*556 FILLER_23_261
*557 FILLER_23_273
*558 FILLER_23_279
*559 FILLER_23_281
*560 FILLER_23_293
*561 FILLER_23_3
*562 FILLER_23_30
*563 FILLER_23_42
*564 FILLER_23_54
*565 FILLER_23_57
*566 FILLER_23_69
*567 FILLER_23_81
*568 FILLER_23_93
*569 FILLER_24_10
*570 FILLER_24_109
*571 FILLER_24_121
*572 FILLER_24_133
*573 FILLER_24_139
*574 FILLER_24_141
*575 FILLER_24_153
*576 FILLER_24_165
*577 FILLER_24_17
*578 FILLER_24_177
*579 FILLER_24_189
*580 FILLER_24_195
*581 FILLER_24_197
*582 FILLER_24_209
*583 FILLER_24_221
*584 FILLER_24_233
*585 FILLER_24_245
*586 FILLER_24_25
*587 FILLER_24_251
*588 FILLER_24_253
*589 FILLER_24_265
*590 FILLER_24_277
*591 FILLER_24_289
*592 FILLER_24_29
*593 FILLER_24_297
*594 FILLER_24_3
*595 FILLER_24_41
*596 FILLER_24_53
*597 FILLER_24_65
*598 FILLER_24_77
*599 FILLER_24_83
*600 FILLER_24_85
*601 FILLER_24_97
*602 FILLER_25_10
*603 FILLER_25_105
*604 FILLER_25_111
*605 FILLER_25_113
*606 FILLER_25_125
*607 FILLER_25_137
*608 FILLER_25_149
*609 FILLER_25_161
*610 FILLER_25_167
*611 FILLER_25_169
*612 FILLER_25_17
*613 FILLER_25_181
*614 FILLER_25_193
*615 FILLER_25_205
*616 FILLER_25_217
*617 FILLER_25_223
*618 FILLER_25_225
*619 FILLER_25_237
*620 FILLER_25_249
*621 FILLER_25_261
*622 FILLER_25_273
*623 FILLER_25_279
*624 FILLER_25_281
*625 FILLER_25_29
*626 FILLER_25_293
*627 FILLER_25_3
*628 FILLER_25_41
*629 FILLER_25_53
*630 FILLER_25_57
*631 FILLER_25_69
*632 FILLER_25_81
*633 FILLER_25_93
*634 FILLER_26_109
*635 FILLER_26_121
*636 FILLER_26_133
*637 FILLER_26_139
*638 FILLER_26_141
*639 FILLER_26_153
*640 FILLER_26_165
*641 FILLER_26_177
*642 FILLER_26_189
*643 FILLER_26_195
*644 FILLER_26_197
*645 FILLER_26_209
*646 FILLER_26_221
*647 FILLER_26_233
*648 FILLER_26_245
*649 FILLER_26_25
*650 FILLER_26_251
*651 FILLER_26_253
*652 FILLER_26_265
*653 FILLER_26_277
*654 FILLER_26_289
*655 FILLER_26_29
*656 FILLER_26_297
*657 FILLER_26_3
*658 FILLER_26_41
*659 FILLER_26_53
*660 FILLER_26_65
*661 FILLER_26_77
*662 FILLER_26_83
*663 FILLER_26_85
*664 FILLER_26_97
*665 FILLER_27_105
*666 FILLER_27_11
*667 FILLER_27_111
*668 FILLER_27_113
*669 FILLER_27_125
*670 FILLER_27_137
*671 FILLER_27_149
*672 FILLER_27_15
*673 FILLER_27_161
*674 FILLER_27_167
*675 FILLER_27_169
*676 FILLER_27_181
*677 FILLER_27_193
*678 FILLER_27_205
*679 FILLER_27_217
*680 FILLER_27_223
*681 FILLER_27_225
*682 FILLER_27_237
*683 FILLER_27_249
*684 FILLER_27_261
*685 FILLER_27_273
*686 FILLER_27_279
*687 FILLER_27_281
*688 FILLER_27_293
*689 FILLER_27_3
*690 FILLER_27_36
*691 FILLER_27_48
*692 FILLER_27_57
*693 FILLER_27_69
*694 FILLER_27_81
*695 FILLER_27_93
*696 FILLER_28_109
*697 FILLER_28_121
*698 FILLER_28_133
*699 FILLER_28_139
*700 FILLER_28_141
*701 FILLER_28_153
*702 FILLER_28_165
*703 FILLER_28_177
*704 FILLER_28_18
*705 FILLER_28_189
*706 FILLER_28_195
*707 FILLER_28_197
*708 FILLER_28_209
*709 FILLER_28_221
*710 FILLER_28_233
*711 FILLER_28_245
*712 FILLER_28_251
*713 FILLER_28_253
*714 FILLER_28_26
*715 FILLER_28_265
*716 FILLER_28_277
*717 FILLER_28_289
*718 FILLER_28_29
*719 FILLER_28_297
*720 FILLER_28_3
*721 FILLER_28_41
*722 FILLER_28_53
*723 FILLER_28_65
*724 FILLER_28_77
*725 FILLER_28_83
*726 FILLER_28_85
*727 FILLER_28_97
*728 FILLER_29_105
*729 FILLER_29_111
*730 FILLER_29_113
*731 FILLER_29_125
*732 FILLER_29_137
*733 FILLER_29_149
*734 FILLER_29_15
*735 FILLER_29_161
*736 FILLER_29_167
*737 FILLER_29_169
*738 FILLER_29_181
*739 FILLER_29_193
*740 FILLER_29_205
*741 FILLER_29_217
*742 FILLER_29_223
*743 FILLER_29_225
*744 FILLER_29_237
*745 FILLER_29_249
*746 FILLER_29_261
*747 FILLER_29_27
*748 FILLER_29_273
*749 FILLER_29_279
*750 FILLER_29_281
*751 FILLER_29_293
*752 FILLER_29_3
*753 FILLER_29_39
*754 FILLER_29_51
*755 FILLER_29_55
*756 FILLER_29_57
*757 FILLER_29_69
*758 FILLER_29_81
*759 FILLER_29_93
*760 FILLER_2_109
*761 FILLER_2_121
*762 FILLER_2_133
*763 FILLER_2_139
*764 FILLER_2_141
*765 FILLER_2_15
*766 FILLER_2_153
*767 FILLER_2_165
*768 FILLER_2_177
*769 FILLER_2_189
*770 FILLER_2_195
*771 FILLER_2_197
*772 FILLER_2_209
*773 FILLER_2_221
*774 FILLER_2_233
*775 FILLER_2_245
*776 FILLER_2_251
*777 FILLER_2_253
*778 FILLER_2_265
*779 FILLER_2_27
*780 FILLER_2_277
*781 FILLER_2_289
*782 FILLER_2_29
*783 FILLER_2_297
*784 FILLER_2_3
*785 FILLER_2_41
*786 FILLER_2_53
*787 FILLER_2_65
*788 FILLER_2_77
*789 FILLER_2_83
*790 FILLER_2_85
*791 FILLER_2_97
*792 FILLER_30_109
*793 FILLER_30_121
*794 FILLER_30_133
*795 FILLER_30_139
*796 FILLER_30_141
*797 FILLER_30_153
*798 FILLER_30_165
*799 FILLER_30_177
*800 FILLER_30_189
*801 FILLER_30_195
*802 FILLER_30_197
*803 FILLER_30_20
*804 FILLER_30_209
*805 FILLER_30_221
*806 FILLER_30_233
*807 FILLER_30_245
*808 FILLER_30_251
*809 FILLER_30_253
*810 FILLER_30_265
*811 FILLER_30_277
*812 FILLER_30_289
*813 FILLER_30_29
*814 FILLER_30_297
*815 FILLER_30_3
*816 FILLER_30_41
*817 FILLER_30_53
*818 FILLER_30_74
*819 FILLER_30_8
*820 FILLER_30_82
*821 FILLER_30_85
*822 FILLER_30_97
*823 FILLER_31_10
*824 FILLER_31_105
*825 FILLER_31_111
*826 FILLER_31_113
*827 FILLER_31_125
*828 FILLER_31_137
*829 FILLER_31_149
*830 FILLER_31_161
*831 FILLER_31_167
*832 FILLER_31_169
*833 FILLER_31_181
*834 FILLER_31_193
*835 FILLER_31_205
*836 FILLER_31_217
*837 FILLER_31_22
*838 FILLER_31_223
*839 FILLER_31_225
*840 FILLER_31_237
*841 FILLER_31_249
*842 FILLER_31_261
*843 FILLER_31_273
*844 FILLER_31_279
*845 FILLER_31_281
*846 FILLER_31_293
*847 FILLER_31_3
*848 FILLER_31_34
*849 FILLER_31_46
*850 FILLER_31_54
*851 FILLER_31_57
*852 FILLER_31_69
*853 FILLER_31_93
*854 FILLER_32_109
*855 FILLER_32_121
*856 FILLER_32_133
*857 FILLER_32_139
*858 FILLER_32_141
*859 FILLER_32_153
*860 FILLER_32_165
*861 FILLER_32_177
*862 FILLER_32_189
*863 FILLER_32_195
*864 FILLER_32_197
*865 FILLER_32_209
*866 FILLER_32_21
*867 FILLER_32_221
*868 FILLER_32_233
*869 FILLER_32_245
*870 FILLER_32_251
*871 FILLER_32_253
*872 FILLER_32_265
*873 FILLER_32_27
*874 FILLER_32_277
*875 FILLER_32_289
*876 FILLER_32_29
*877 FILLER_32_297
*878 FILLER_32_3
*879 FILLER_32_41
*880 FILLER_32_53
*881 FILLER_32_65
*882 FILLER_32_77
*883 FILLER_32_83
*884 FILLER_32_85
*885 FILLER_32_9
*886 FILLER_32_97
*887 FILLER_33_100
*888 FILLER_33_113
*889 FILLER_33_125
*890 FILLER_33_13
*891 FILLER_33_137
*892 FILLER_33_149
*893 FILLER_33_161
*894 FILLER_33_167
*895 FILLER_33_169
*896 FILLER_33_181
*897 FILLER_33_193
*898 FILLER_33_205
*899 FILLER_33_217
*900 FILLER_33_223
*901 FILLER_33_225
*902 FILLER_33_237
*903 FILLER_33_249
*904 FILLER_33_25
*905 FILLER_33_261
*906 FILLER_33_273
*907 FILLER_33_279
*908 FILLER_33_281
*909 FILLER_33_293
*910 FILLER_33_3
*911 FILLER_33_37
*912 FILLER_33_49
*913 FILLER_33_55
*914 FILLER_33_57
*915 FILLER_33_69
*916 FILLER_33_81
*917 FILLER_33_93
*918 FILLER_34_109
*919 FILLER_34_121
*920 FILLER_34_133
*921 FILLER_34_139
*922 FILLER_34_141
*923 FILLER_34_153
*924 FILLER_34_165
*925 FILLER_34_177
*926 FILLER_34_189
*927 FILLER_34_195
*928 FILLER_34_197
*929 FILLER_34_209
*930 FILLER_34_221
*931 FILLER_34_233
*932 FILLER_34_245
*933 FILLER_34_25
*934 FILLER_34_251
*935 FILLER_34_253
*936 FILLER_34_265
*937 FILLER_34_277
*938 FILLER_34_289
*939 FILLER_34_29
*940 FILLER_34_297
*941 FILLER_34_3
*942 FILLER_34_41
*943 FILLER_34_53
*944 FILLER_34_65
*945 FILLER_34_77
*946 FILLER_34_83
*947 FILLER_34_85
*948 FILLER_34_97
*949 FILLER_35_105
*950 FILLER_35_111
*951 FILLER_35_113
*952 FILLER_35_125
*953 FILLER_35_137
*954 FILLER_35_149
*955 FILLER_35_161
*956 FILLER_35_167
*957 FILLER_35_169
*958 FILLER_35_181
*959 FILLER_35_193
*960 FILLER_35_205
*961 FILLER_35_217
*962 FILLER_35_223
*963 FILLER_35_225
*964 FILLER_35_237
*965 FILLER_35_249
*966 FILLER_35_25
*967 FILLER_35_261
*968 FILLER_35_273
*969 FILLER_35_279
*970 FILLER_35_281
*971 FILLER_35_293
*972 FILLER_35_3
*973 FILLER_35_37
*974 FILLER_35_49
*975 FILLER_35_55
*976 FILLER_35_57
*977 FILLER_35_69
*978 FILLER_35_81
*979 FILLER_35_93
*980 FILLER_36_109
*981 FILLER_36_121
*982 FILLER_36_133
*983 FILLER_36_139
*984 FILLER_36_141
*985 FILLER_36_153
*986 FILLER_36_165
*987 FILLER_36_177
*988 FILLER_36_189
*989 FILLER_36_195
*990 FILLER_36_197
*991 FILLER_36_209
*992 FILLER_36_221
*993 FILLER_36_233
*994 FILLER_36_245
*995 FILLER_36_251
*996 FILLER_36_253
*997 FILLER_36_26
*998 FILLER_36_265
*999 FILLER_36_277
*1000 FILLER_36_289
*1001 FILLER_36_29
*1002 FILLER_36_297
*1003 FILLER_36_3
*1004 FILLER_36_34
*1005 FILLER_36_46
*1006 FILLER_36_58
*1007 FILLER_36_70
*1008 FILLER_36_82
*1009 FILLER_36_85
*1010 FILLER_36_97
*1011 FILLER_37_105
*1012 FILLER_37_111
*1013 FILLER_37_113
*1014 FILLER_37_125
*1015 FILLER_37_137
*1016 FILLER_37_149
*1017 FILLER_37_161
*1018 FILLER_37_167
*1019 FILLER_37_169
*1020 FILLER_37_181
*1021 FILLER_37_193
*1022 FILLER_37_205
*1023 FILLER_37_217
*1024 FILLER_37_223
*1025 FILLER_37_225
*1026 FILLER_37_237
*1027 FILLER_37_249
*1028 FILLER_37_25
*1029 FILLER_37_261
*1030 FILLER_37_273
*1031 FILLER_37_279
*1032 FILLER_37_281
*1033 FILLER_37_293
*1034 FILLER_37_3
*1035 FILLER_37_37
*1036 FILLER_37_49
*1037 FILLER_37_55
*1038 FILLER_37_57
*1039 FILLER_37_69
*1040 FILLER_37_81
*1041 FILLER_37_93
*1042 FILLER_38_109
*1043 FILLER_38_12
*1044 FILLER_38_121
*1045 FILLER_38_133
*1046 FILLER_38_139
*1047 FILLER_38_141
*1048 FILLER_38_153
*1049 FILLER_38_165
*1050 FILLER_38_177
*1051 FILLER_38_189
*1052 FILLER_38_19
*1053 FILLER_38_195
*1054 FILLER_38_197
*1055 FILLER_38_209
*1056 FILLER_38_221
*1057 FILLER_38_233
*1058 FILLER_38_245
*1059 FILLER_38_251
*1060 FILLER_38_253
*1061 FILLER_38_265
*1062 FILLER_38_27
*1063 FILLER_38_277
*1064 FILLER_38_289
*1065 FILLER_38_29
*1066 FILLER_38_297
*1067 FILLER_38_3
*1068 FILLER_38_41
*1069 FILLER_38_53
*1070 FILLER_38_65
*1071 FILLER_38_77
*1072 FILLER_38_83
*1073 FILLER_38_85
*1074 FILLER_38_97
*1075 FILLER_39_10
*1076 FILLER_39_105
*1077 FILLER_39_111
*1078 FILLER_39_113
*1079 FILLER_39_125
*1080 FILLER_39_137
*1081 FILLER_39_149
*1082 FILLER_39_161
*1083 FILLER_39_167
*1084 FILLER_39_169
*1085 FILLER_39_181
*1086 FILLER_39_193
*1087 FILLER_39_205
*1088 FILLER_39_217
*1089 FILLER_39_22
*1090 FILLER_39_223
*1091 FILLER_39_225
*1092 FILLER_39_237
*1093 FILLER_39_249
*1094 FILLER_39_261
*1095 FILLER_39_273
*1096 FILLER_39_279
*1097 FILLER_39_281
*1098 FILLER_39_293
*1099 FILLER_39_3
*1100 FILLER_39_34
*1101 FILLER_39_46
*1102 FILLER_39_54
*1103 FILLER_39_57
*1104 FILLER_39_69
*1105 FILLER_39_81
*1106 FILLER_39_93
*1107 FILLER_3_105
*1108 FILLER_3_111
*1109 FILLER_3_113
*1110 FILLER_3_125
*1111 FILLER_3_137
*1112 FILLER_3_149
*1113 FILLER_3_15
*1114 FILLER_3_161
*1115 FILLER_3_167
*1116 FILLER_3_169
*1117 FILLER_3_181
*1118 FILLER_3_193
*1119 FILLER_3_205
*1120 FILLER_3_217
*1121 FILLER_3_223
*1122 FILLER_3_225
*1123 FILLER_3_237
*1124 FILLER_3_249
*1125 FILLER_3_261
*1126 FILLER_3_27
*1127 FILLER_3_273
*1128 FILLER_3_279
*1129 FILLER_3_281
*1130 FILLER_3_293
*1131 FILLER_3_3
*1132 FILLER_3_39
*1133 FILLER_3_51
*1134 FILLER_3_55
*1135 FILLER_3_57
*1136 FILLER_3_69
*1137 FILLER_3_81
*1138 FILLER_3_93
*1139 FILLER_40_10
*1140 FILLER_40_109
*1141 FILLER_40_121
*1142 FILLER_40_133
*1143 FILLER_40_139
*1144 FILLER_40_141
*1145 FILLER_40_153
*1146 FILLER_40_165
*1147 FILLER_40_177
*1148 FILLER_40_189
*1149 FILLER_40_195
*1150 FILLER_40_197
*1151 FILLER_40_209
*1152 FILLER_40_22
*1153 FILLER_40_221
*1154 FILLER_40_233
*1155 FILLER_40_245
*1156 FILLER_40_251
*1157 FILLER_40_253
*1158 FILLER_40_265
*1159 FILLER_40_277
*1160 FILLER_40_289
*1161 FILLER_40_29
*1162 FILLER_40_297
*1163 FILLER_40_3
*1164 FILLER_40_41
*1165 FILLER_40_53
*1166 FILLER_40_65
*1167 FILLER_40_77
*1168 FILLER_40_83
*1169 FILLER_40_85
*1170 FILLER_40_97
*1171 FILLER_41_105
*1172 FILLER_41_111
*1173 FILLER_41_113
*1174 FILLER_41_125
*1175 FILLER_41_137
*1176 FILLER_41_149
*1177 FILLER_41_161
*1178 FILLER_41_167
*1179 FILLER_41_169
*1180 FILLER_41_181
*1181 FILLER_41_193
*1182 FILLER_41_205
*1183 FILLER_41_21
*1184 FILLER_41_217
*1185 FILLER_41_223
*1186 FILLER_41_225
*1187 FILLER_41_237
*1188 FILLER_41_249
*1189 FILLER_41_261
*1190 FILLER_41_273
*1191 FILLER_41_279
*1192 FILLER_41_281
*1193 FILLER_41_293
*1194 FILLER_41_3
*1195 FILLER_41_33
*1196 FILLER_41_45
*1197 FILLER_41_53
*1198 FILLER_41_57
*1199 FILLER_41_69
*1200 FILLER_41_81
*1201 FILLER_41_9
*1202 FILLER_41_93
*1203 FILLER_42_109
*1204 FILLER_42_121
*1205 FILLER_42_133
*1206 FILLER_42_139
*1207 FILLER_42_141
*1208 FILLER_42_15
*1209 FILLER_42_153
*1210 FILLER_42_165
*1211 FILLER_42_177
*1212 FILLER_42_189
*1213 FILLER_42_195
*1214 FILLER_42_197
*1215 FILLER_42_209
*1216 FILLER_42_221
*1217 FILLER_42_233
*1218 FILLER_42_245
*1219 FILLER_42_251
*1220 FILLER_42_253
*1221 FILLER_42_265
*1222 FILLER_42_27
*1223 FILLER_42_277
*1224 FILLER_42_289
*1225 FILLER_42_29
*1226 FILLER_42_297
*1227 FILLER_42_3
*1228 FILLER_42_41
*1229 FILLER_42_53
*1230 FILLER_42_65
*1231 FILLER_42_77
*1232 FILLER_42_83
*1233 FILLER_42_85
*1234 FILLER_42_97
*1235 FILLER_43_105
*1236 FILLER_43_111
*1237 FILLER_43_113
*1238 FILLER_43_125
*1239 FILLER_43_137
*1240 FILLER_43_149
*1241 FILLER_43_15
*1242 FILLER_43_161
*1243 FILLER_43_167
*1244 FILLER_43_169
*1245 FILLER_43_181
*1246 FILLER_43_193
*1247 FILLER_43_205
*1248 FILLER_43_217
*1249 FILLER_43_223
*1250 FILLER_43_225
*1251 FILLER_43_237
*1252 FILLER_43_249
*1253 FILLER_43_261
*1254 FILLER_43_27
*1255 FILLER_43_273
*1256 FILLER_43_279
*1257 FILLER_43_281
*1258 FILLER_43_293
*1259 FILLER_43_3
*1260 FILLER_43_39
*1261 FILLER_43_51
*1262 FILLER_43_55
*1263 FILLER_43_57
*1264 FILLER_43_69
*1265 FILLER_43_81
*1266 FILLER_43_93
*1267 FILLER_44_109
*1268 FILLER_44_121
*1269 FILLER_44_133
*1270 FILLER_44_139
*1271 FILLER_44_141
*1272 FILLER_44_153
*1273 FILLER_44_165
*1274 FILLER_44_177
*1275 FILLER_44_189
*1276 FILLER_44_195
*1277 FILLER_44_197
*1278 FILLER_44_209
*1279 FILLER_44_221
*1280 FILLER_44_233
*1281 FILLER_44_245
*1282 FILLER_44_251
*1283 FILLER_44_253
*1284 FILLER_44_26
*1285 FILLER_44_265
*1286 FILLER_44_277
*1287 FILLER_44_289
*1288 FILLER_44_29
*1289 FILLER_44_297
*1290 FILLER_44_3
*1291 FILLER_44_41
*1292 FILLER_44_53
*1293 FILLER_44_65
*1294 FILLER_44_77
*1295 FILLER_44_83
*1296 FILLER_44_85
*1297 FILLER_44_97
*1298 FILLER_45_105
*1299 FILLER_45_11
*1300 FILLER_45_111
*1301 FILLER_45_113
*1302 FILLER_45_125
*1303 FILLER_45_137
*1304 FILLER_45_149
*1305 FILLER_45_161
*1306 FILLER_45_167
*1307 FILLER_45_169
*1308 FILLER_45_181
*1309 FILLER_45_193
*1310 FILLER_45_205
*1311 FILLER_45_217
*1312 FILLER_45_223
*1313 FILLER_45_225
*1314 FILLER_45_237
*1315 FILLER_45_249
*1316 FILLER_45_261
*1317 FILLER_45_273
*1318 FILLER_45_279
*1319 FILLER_45_281
*1320 FILLER_45_293
*1321 FILLER_45_3
*1322 FILLER_45_32
*1323 FILLER_45_44
*1324 FILLER_45_57
*1325 FILLER_45_69
*1326 FILLER_45_81
*1327 FILLER_45_93
*1328 FILLER_46_109
*1329 FILLER_46_121
*1330 FILLER_46_133
*1331 FILLER_46_139
*1332 FILLER_46_141
*1333 FILLER_46_153
*1334 FILLER_46_165
*1335 FILLER_46_177
*1336 FILLER_46_189
*1337 FILLER_46_195
*1338 FILLER_46_197
*1339 FILLER_46_209
*1340 FILLER_46_221
*1341 FILLER_46_233
*1342 FILLER_46_245
*1343 FILLER_46_25
*1344 FILLER_46_251
*1345 FILLER_46_253
*1346 FILLER_46_265
*1347 FILLER_46_277
*1348 FILLER_46_289
*1349 FILLER_46_29
*1350 FILLER_46_297
*1351 FILLER_46_3
*1352 FILLER_46_35
*1353 FILLER_46_47
*1354 FILLER_46_59
*1355 FILLER_46_71
*1356 FILLER_46_83
*1357 FILLER_46_85
*1358 FILLER_46_97
*1359 FILLER_47_105
*1360 FILLER_47_111
*1361 FILLER_47_113
*1362 FILLER_47_125
*1363 FILLER_47_137
*1364 FILLER_47_149
*1365 FILLER_47_161
*1366 FILLER_47_167
*1367 FILLER_47_169
*1368 FILLER_47_181
*1369 FILLER_47_193
*1370 FILLER_47_205
*1371 FILLER_47_217
*1372 FILLER_47_223
*1373 FILLER_47_225
*1374 FILLER_47_237
*1375 FILLER_47_249
*1376 FILLER_47_25
*1377 FILLER_47_261
*1378 FILLER_47_273
*1379 FILLER_47_279
*1380 FILLER_47_281
*1381 FILLER_47_293
*1382 FILLER_47_3
*1383 FILLER_47_37
*1384 FILLER_47_49
*1385 FILLER_47_55
*1386 FILLER_47_57
*1387 FILLER_47_69
*1388 FILLER_47_81
*1389 FILLER_47_93
*1390 FILLER_48_109
*1391 FILLER_48_11
*1392 FILLER_48_121
*1393 FILLER_48_133
*1394 FILLER_48_139
*1395 FILLER_48_141
*1396 FILLER_48_153
*1397 FILLER_48_165
*1398 FILLER_48_177
*1399 FILLER_48_189
*1400 FILLER_48_195
*1401 FILLER_48_197
*1402 FILLER_48_20
*1403 FILLER_48_209
*1404 FILLER_48_221
*1405 FILLER_48_233
*1406 FILLER_48_245
*1407 FILLER_48_251
*1408 FILLER_48_253
*1409 FILLER_48_265
*1410 FILLER_48_277
*1411 FILLER_48_289
*1412 FILLER_48_29
*1413 FILLER_48_297
*1414 FILLER_48_3
*1415 FILLER_48_41
*1416 FILLER_48_53
*1417 FILLER_48_65
*1418 FILLER_48_77
*1419 FILLER_48_83
*1420 FILLER_48_85
*1421 FILLER_48_97
*1422 FILLER_49_105
*1423 FILLER_49_111
*1424 FILLER_49_113
*1425 FILLER_49_125
*1426 FILLER_49_137
*1427 FILLER_49_149
*1428 FILLER_49_15
*1429 FILLER_49_161
*1430 FILLER_49_167
*1431 FILLER_49_169
*1432 FILLER_49_181
*1433 FILLER_49_193
*1434 FILLER_49_205
*1435 FILLER_49_217
*1436 FILLER_49_223
*1437 FILLER_49_225
*1438 FILLER_49_237
*1439 FILLER_49_249
*1440 FILLER_49_261
*1441 FILLER_49_27
*1442 FILLER_49_273
*1443 FILLER_49_279
*1444 FILLER_49_281
*1445 FILLER_49_293
*1446 FILLER_49_3
*1447 FILLER_49_39
*1448 FILLER_49_51
*1449 FILLER_49_55
*1450 FILLER_49_57
*1451 FILLER_49_69
*1452 FILLER_49_81
*1453 FILLER_49_93
*1454 FILLER_4_109
*1455 FILLER_4_121
*1456 FILLER_4_133
*1457 FILLER_4_139
*1458 FILLER_4_141
*1459 FILLER_4_15
*1460 FILLER_4_153
*1461 FILLER_4_165
*1462 FILLER_4_177
*1463 FILLER_4_189
*1464 FILLER_4_195
*1465 FILLER_4_197
*1466 FILLER_4_209
*1467 FILLER_4_221
*1468 FILLER_4_233
*1469 FILLER_4_245
*1470 FILLER_4_251
*1471 FILLER_4_253
*1472 FILLER_4_265
*1473 FILLER_4_27
*1474 FILLER_4_277
*1475 FILLER_4_289
*1476 FILLER_4_29
*1477 FILLER_4_297
*1478 FILLER_4_3
*1479 FILLER_4_41
*1480 FILLER_4_53
*1481 FILLER_4_65
*1482 FILLER_4_77
*1483 FILLER_4_83
*1484 FILLER_4_85
*1485 FILLER_4_97
*1486 FILLER_50_109
*1487 FILLER_50_121
*1488 FILLER_50_133
*1489 FILLER_50_139
*1490 FILLER_50_141
*1491 FILLER_50_15
*1492 FILLER_50_153
*1493 FILLER_50_165
*1494 FILLER_50_177
*1495 FILLER_50_189
*1496 FILLER_50_195
*1497 FILLER_50_197
*1498 FILLER_50_209
*1499 FILLER_50_221
*1500 FILLER_50_233
*1501 FILLER_50_245
*1502 FILLER_50_251
*1503 FILLER_50_253
*1504 FILLER_50_265
*1505 FILLER_50_27
*1506 FILLER_50_277
*1507 FILLER_50_289
*1508 FILLER_50_29
*1509 FILLER_50_297
*1510 FILLER_50_3
*1511 FILLER_50_41
*1512 FILLER_50_53
*1513 FILLER_50_65
*1514 FILLER_50_77
*1515 FILLER_50_83
*1516 FILLER_50_85
*1517 FILLER_50_97
*1518 FILLER_51_105
*1519 FILLER_51_111
*1520 FILLER_51_113
*1521 FILLER_51_125
*1522 FILLER_51_137
*1523 FILLER_51_149
*1524 FILLER_51_161
*1525 FILLER_51_167
*1526 FILLER_51_169
*1527 FILLER_51_181
*1528 FILLER_51_193
*1529 FILLER_51_20
*1530 FILLER_51_205
*1531 FILLER_51_217
*1532 FILLER_51_223
*1533 FILLER_51_225
*1534 FILLER_51_237
*1535 FILLER_51_249
*1536 FILLER_51_261
*1537 FILLER_51_273
*1538 FILLER_51_279
*1539 FILLER_51_281
*1540 FILLER_51_293
*1541 FILLER_51_3
*1542 FILLER_51_32
*1543 FILLER_51_44
*1544 FILLER_51_57
*1545 FILLER_51_69
*1546 FILLER_51_8
*1547 FILLER_51_81
*1548 FILLER_51_93
*1549 FILLER_52_109
*1550 FILLER_52_121
*1551 FILLER_52_133
*1552 FILLER_52_139
*1553 FILLER_52_141
*1554 FILLER_52_153
*1555 FILLER_52_165
*1556 FILLER_52_177
*1557 FILLER_52_18
*1558 FILLER_52_189
*1559 FILLER_52_195
*1560 FILLER_52_197
*1561 FILLER_52_209
*1562 FILLER_52_221
*1563 FILLER_52_233
*1564 FILLER_52_245
*1565 FILLER_52_251
*1566 FILLER_52_253
*1567 FILLER_52_26
*1568 FILLER_52_265
*1569 FILLER_52_277
*1570 FILLER_52_289
*1571 FILLER_52_29
*1572 FILLER_52_297
*1573 FILLER_52_3
*1574 FILLER_52_41
*1575 FILLER_52_53
*1576 FILLER_52_65
*1577 FILLER_52_77
*1578 FILLER_52_83
*1579 FILLER_52_85
*1580 FILLER_52_97
*1581 FILLER_53_105
*1582 FILLER_53_111
*1583 FILLER_53_113
*1584 FILLER_53_125
*1585 FILLER_53_137
*1586 FILLER_53_149
*1587 FILLER_53_15