*SPEF "ieee 1481-1999"
*DESIGN "afoote_w5s8_tt02_top"
*DATE "11:11:11 Fri 11 11, 1111"
*VENDOR "OpenRCX"
*PROGRAM "Parallel Extraction"
*VERSION "1.0"
*DESIGN_FLOW "NAME_SCOPE LOCAL" "PIN_CAP NONE"
*DIVIDER /
*DELIMITER :
*BUS_DELIMITER []
*T_UNIT 1 NS
*C_UNIT 1 PF
*R_UNIT 1 OHM
*L_UNIT 1 HENRY

*NAME_MAP
*1 io_in[0]
*2 io_in[1]
*3 io_in[2]
*4 io_in[3]
*5 io_in[4]
*6 io_in[5]
*7 io_in[6]
*8 io_in[7]
*9 net8
*10 io_out[1]
*11 io_out[2]
*12 io_out[3]
*13 io_out[4]
*14 io_out[5]
*15 io_out[6]
*16 io_out[7]
*19 _000_
*20 _001_
*21 _002_
*22 _003_
*23 _004_
*24 _005_
*25 _006_
*26 _007_
*27 _008_
*28 _009_
*29 _010_
*30 _011_
*31 _012_
*32 _013_
*33 _014_
*34 _015_
*35 _016_
*36 _017_
*37 _018_
*38 _019_
*39 _020_
*40 _021_
*41 _022_
*42 _023_
*43 _024_
*44 _025_
*45 _026_
*46 _027_
*47 _028_
*48 _029_
*49 _030_
*50 _031_
*51 _032_
*52 _033_
*53 _034_
*54 _035_
*55 _036_
*56 _037_
*57 _038_
*58 _039_
*59 _040_
*60 _041_
*61 _042_
*62 _043_
*63 _044_
*64 _045_
*65 _046_
*66 _047_
*67 _048_
*68 _049_
*69 _050_
*70 _051_
*71 _052_
*72 _053_
*73 _054_
*74 _055_
*75 _056_
*76 _057_
*77 _058_
*78 _059_
*79 _060_
*80 _061_
*81 _062_
*82 _063_
*83 _064_
*84 _065_
*85 _066_
*86 _067_
*87 _068_
*88 _069_
*89 _070_
*90 _071_
*91 _072_
*92 _073_
*93 _074_
*94 _075_
*95 _076_
*96 _077_
*97 _078_
*98 _079_
*99 _080_
*100 _081_
*101 _082_
*102 _083_
*103 _084_
*104 _085_
*105 _086_
*106 _087_
*107 _088_
*108 _089_
*109 _090_
*110 _091_
*111 _092_
*112 _093_
*113 clknet_0_io_in[0]
*114 clknet_1_0__leaf_io_in[0]
*115 clknet_1_1__leaf_io_in[0]
*116 core\.direction
*117 core\.new_sym_block\.z0
*118 core\.new_sym_block\.z1
*119 core\.new_sym_block\.z2
*120 core\.stored_state\[0\]
*121 core\.stored_state\[1\]
*122 core\.stored_state\[2\]
*123 core\.stored_state\[3\]
*124 core\.stored_state\[4\]
*125 core\.stored_state\[5\]
*126 core\.stored_state\[6\]
*127 core\.stored_state\[7\]
*128 core\.symbuf\[0\]
*129 core\.symbuf\[1\]
*130 core\.symbuf\[2\]
*131 core\.symbuf_valid
*132 net1
*133 net2
*134 net3
*135 net4
*136 net5
*137 net6
*138 net7
*139 FILLER_0_109
*140 FILLER_0_113
*141 FILLER_0_125
*142 FILLER_0_137
*143 FILLER_0_141
*144 FILLER_0_153
*145 FILLER_0_165
*146 FILLER_0_169
*147 FILLER_0_181
*148 FILLER_0_193
*149 FILLER_0_197
*150 FILLER_0_209
*151 FILLER_0_221
*152 FILLER_0_225
*153 FILLER_0_237
*154 FILLER_0_249
*155 FILLER_0_253
*156 FILLER_0_26
*157 FILLER_0_265
*158 FILLER_0_277
*159 FILLER_0_281
*160 FILLER_0_29
*161 FILLER_0_293
*162 FILLER_0_3
*163 FILLER_0_47
*164 FILLER_0_55
*165 FILLER_0_57
*166 FILLER_0_75
*167 FILLER_0_83
*168 FILLER_0_85
*169 FILLER_0_9
*170 FILLER_0_97
*171 FILLER_10_109
*172 FILLER_10_11
*173 FILLER_10_121
*174 FILLER_10_133
*175 FILLER_10_139
*176 FILLER_10_141
*177 FILLER_10_153
*178 FILLER_10_165
*179 FILLER_10_177
*180 FILLER_10_18
*181 FILLER_10_189
*182 FILLER_10_195
*183 FILLER_10_197
*184 FILLER_10_209
*185 FILLER_10_221
*186 FILLER_10_233
*187 FILLER_10_245
*188 FILLER_10_251
*189 FILLER_10_253
*190 FILLER_10_26
*191 FILLER_10_265
*192 FILLER_10_277
*193 FILLER_10_289
*194 FILLER_10_29
*195 FILLER_10_297
*196 FILLER_10_3
*197 FILLER_10_41
*198 FILLER_10_53
*199 FILLER_10_65
*200 FILLER_10_77
*201 FILLER_10_83
*202 FILLER_10_85
*203 FILLER_10_97
*204 FILLER_11_105
*205 FILLER_11_111
*206 FILLER_11_113
*207 FILLER_11_125
*208 FILLER_11_137
*209 FILLER_11_149
*210 FILLER_11_161
*211 FILLER_11_167
*212 FILLER_11_169
*213 FILLER_11_181
*214 FILLER_11_193
*215 FILLER_11_205
*216 FILLER_11_21
*217 FILLER_11_217
*218 FILLER_11_223
*219 FILLER_11_225
*220 FILLER_11_237
*221 FILLER_11_249
*222 FILLER_11_261
*223 FILLER_11_273
*224 FILLER_11_279
*225 FILLER_11_281
*226 FILLER_11_293
*227 FILLER_11_3
*228 FILLER_11_33
*229 FILLER_11_45
*230 FILLER_11_53
*231 FILLER_11_57
*232 FILLER_11_69
*233 FILLER_11_81
*234 FILLER_11_9
*235 FILLER_11_93
*236 FILLER_12_109
*237 FILLER_12_121
*238 FILLER_12_133
*239 FILLER_12_139
*240 FILLER_12_141
*241 FILLER_12_153
*242 FILLER_12_165
*243 FILLER_12_177
*244 FILLER_12_189
*245 FILLER_12_19
*246 FILLER_12_195
*247 FILLER_12_197
*248 FILLER_12_209
*249 FILLER_12_221
*250 FILLER_12_233
*251 FILLER_12_245
*252 FILLER_12_251
*253 FILLER_12_253
*254 FILLER_12_265
*255 FILLER_12_27
*256 FILLER_12_277
*257 FILLER_12_289
*258 FILLER_12_29
*259 FILLER_12_297
*260 FILLER_12_3
*261 FILLER_12_41
*262 FILLER_12_51
*263 FILLER_12_63
*264 FILLER_12_75
*265 FILLER_12_83
*266 FILLER_12_85
*267 FILLER_12_9
*268 FILLER_12_97
*269 FILLER_13_105
*270 FILLER_13_111
*271 FILLER_13_113
*272 FILLER_13_125
*273 FILLER_13_137
*274 FILLER_13_149
*275 FILLER_13_15
*276 FILLER_13_161
*277 FILLER_13_167
*278 FILLER_13_169
*279 FILLER_13_181
*280 FILLER_13_193
*281 FILLER_13_205
*282 FILLER_13_217
*283 FILLER_13_223
*284 FILLER_13_225
*285 FILLER_13_237
*286 FILLER_13_249
*287 FILLER_13_261
*288 FILLER_13_27
*289 FILLER_13_273
*290 FILLER_13_279
*291 FILLER_13_281
*292 FILLER_13_293
*293 FILLER_13_3
*294 FILLER_13_39
*295 FILLER_13_51
*296 FILLER_13_55
*297 FILLER_13_57
*298 FILLER_13_69
*299 FILLER_13_81
*300 FILLER_13_93
*301 FILLER_14_109
*302 FILLER_14_121
*303 FILLER_14_133
*304 FILLER_14_139
*305 FILLER_14_141
*306 FILLER_14_15
*307 FILLER_14_153
*308 FILLER_14_165
*309 FILLER_14_177
*310 FILLER_14_189
*311 FILLER_14_195
*312 FILLER_14_197
*313 FILLER_14_209
*314 FILLER_14_221
*315 FILLER_14_233
*316 FILLER_14_245
*317 FILLER_14_251
*318 FILLER_14_253
*319 FILLER_14_26
*320 FILLER_14_265
*321 FILLER_14_277
*322 FILLER_14_289
*323 FILLER_14_29
*324 FILLER_14_297
*325 FILLER_14_3
*326 FILLER_14_43
*327 FILLER_14_53
*328 FILLER_14_65
*329 FILLER_14_77
*330 FILLER_14_83
*331 FILLER_14_85
*332 FILLER_14_97
*333 FILLER_15_105
*334 FILLER_15_11
*335 FILLER_15_111
*336 FILLER_15_113
*337 FILLER_15_125
*338 FILLER_15_137
*339 FILLER_15_149
*340 FILLER_15_161
*341 FILLER_15_167
*342 FILLER_15_169
*343 FILLER_15_181
*344 FILLER_15_193
*345 FILLER_15_20
*346 FILLER_15_205
*347 FILLER_15_217
*348 FILLER_15_223
*349 FILLER_15_225
*350 FILLER_15_237
*351 FILLER_15_249
*352 FILLER_15_261
*353 FILLER_15_273
*354 FILLER_15_279
*355 FILLER_15_281
*356 FILLER_15_293
*357 FILLER_15_3
*358 FILLER_15_32
*359 FILLER_15_47
*360 FILLER_15_55
*361 FILLER_15_57
*362 FILLER_15_69
*363 FILLER_15_81
*364 FILLER_15_93
*365 FILLER_16_109
*366 FILLER_16_121
*367 FILLER_16_133
*368 FILLER_16_139
*369 FILLER_16_141
*370 FILLER_16_153
*371 FILLER_16_165
*372 FILLER_16_177
*373 FILLER_16_189
*374 FILLER_16_195
*375 FILLER_16_197
*376 FILLER_16_20
*377 FILLER_16_209
*378 FILLER_16_221
*379 FILLER_16_233
*380 FILLER_16_245
*381 FILLER_16_251
*382 FILLER_16_253
*383 FILLER_16_265
*384 FILLER_16_277
*385 FILLER_16_289
*386 FILLER_16_29
*387 FILLER_16_297
*388 FILLER_16_3
*389 FILLER_16_41
*390 FILLER_16_59
*391 FILLER_16_71
*392 FILLER_16_8
*393 FILLER_16_83
*394 FILLER_16_85
*395 FILLER_16_97
*396 FILLER_17_105
*397 FILLER_17_111
*398 FILLER_17_113
*399 FILLER_17_125
*400 FILLER_17_137
*401 FILLER_17_149
*402 FILLER_17_161
*403 FILLER_17_167
*404 FILLER_17_169
*405 FILLER_17_181
*406 FILLER_17_193
*407 FILLER_17_205
*408 FILLER_17_21
*409 FILLER_17_217
*410 FILLER_17_223
*411 FILLER_17_225
*412 FILLER_17_237
*413 FILLER_17_249
*414 FILLER_17_25
*415 FILLER_17_261
*416 FILLER_17_273
*417 FILLER_17_279
*418 FILLER_17_281
*419 FILLER_17_293
*420 FILLER_17_3
*421 FILLER_17_32
*422 FILLER_17_44
*423 FILLER_17_57
*424 FILLER_17_69
*425 FILLER_17_81
*426 FILLER_17_9
*427 FILLER_17_93
*428 FILLER_18_109
*429 FILLER_18_121
*430 FILLER_18_133
*431 FILLER_18_139
*432 FILLER_18_14
*433 FILLER_18_141
*434 FILLER_18_153
*435 FILLER_18_165
*436 FILLER_18_177
*437 FILLER_18_189
*438 FILLER_18_195
*439 FILLER_18_197
*440 FILLER_18_209
*441 FILLER_18_221
*442 FILLER_18_233
*443 FILLER_18_245
*444 FILLER_18_251
*445 FILLER_18_253
*446 FILLER_18_26
*447 FILLER_18_265
*448 FILLER_18_277
*449 FILLER_18_289
*450 FILLER_18_29
*451 FILLER_18_297
*452 FILLER_18_3
*453 FILLER_18_41
*454 FILLER_18_53
*455 FILLER_18_65
*456 FILLER_18_77
*457 FILLER_18_83
*458 FILLER_18_85
*459 FILLER_18_97
*460 FILLER_19_105
*461 FILLER_19_111
*462 FILLER_19_113
*463 FILLER_19_125
*464 FILLER_19_137
*465 FILLER_19_149
*466 FILLER_19_161
*467 FILLER_19_167
*468 FILLER_19_169
*469 FILLER_19_181
*470 FILLER_19_193
*471 FILLER_19_20
*472 FILLER_19_205
*473 FILLER_19_217
*474 FILLER_19_223
*475 FILLER_19_225
*476 FILLER_19_237
*477 FILLER_19_249
*478 FILLER_19_26
*479 FILLER_19_261
*480 FILLER_19_273
*481 FILLER_19_279
*482 FILLER_19_281
*483 FILLER_19_293
*484 FILLER_19_3
*485 FILLER_19_32
*486 FILLER_19_44
*487 FILLER_19_57
*488 FILLER_19_69
*489 FILLER_19_81
*490 FILLER_19_93
*491 FILLER_1_111
*492 FILLER_1_113
*493 FILLER_1_125
*494 FILLER_1_137
*495 FILLER_1_149
*496 FILLER_1_15
*497 FILLER_1_161
*498 FILLER_1_167
*499 FILLER_1_169
*500 FILLER_1_181
*501 FILLER_1_193
*502 FILLER_1_205
*503 FILLER_1_217
*504 FILLER_1_223
*505 FILLER_1_225
*506 FILLER_1_237
*507 FILLER_1_249
*508 FILLER_1_261
*509 FILLER_1_273
*510 FILLER_1_279
*511 FILLER_1_281
*512 FILLER_1_293
*513 FILLER_1_3
*514 FILLER_1_36
*515 FILLER_1_48
*516 FILLER_1_57
*517 FILLER_1_75
*518 FILLER_1_87
*519 FILLER_1_99
*520 FILLER_20_109
*521 FILLER_20_12
*522 FILLER_20_121
*523 FILLER_20_133
*524 FILLER_20_139
*525 FILLER_20_141
*526 FILLER_20_153
*527 FILLER_20_165
*528 FILLER_20_177
*529 FILLER_20_189
*530 FILLER_20_195
*531 FILLER_20_197
*532 FILLER_20_209
*533 FILLER_20_21
*534 FILLER_20_221
*535 FILLER_20_233
*536 FILLER_20_245
*537 FILLER_20_251
*538 FILLER_20_253
*539 FILLER_20_265
*540 FILLER_20_27
*541 FILLER_20_277
*542 FILLER_20_289
*543 FILLER_20_29
*544 FILLER_20_297
*545 FILLER_20_3
*546 FILLER_20_34
*547 FILLER_20_46
*548 FILLER_20_58
*549 FILLER_20_70
*550 FILLER_20_82
*551 FILLER_20_85
*552 FILLER_20_97
*553 FILLER_21_105
*554 FILLER_21_111
*555 FILLER_21_113
*556 FILLER_21_125
*557 FILLER_21_137
*558 FILLER_21_14
*559 FILLER_21_149
*560 FILLER_21_161
*561 FILLER_21_167
*562 FILLER_21_169
*563 FILLER_21_181
*564 FILLER_21_193
*565 FILLER_21_205
*566 FILLER_21_217
*567 FILLER_21_223
*568 FILLER_21_225
*569 FILLER_21_237
*570 FILLER_21_249
*571 FILLER_21_26
*572 FILLER_21_261
*573 FILLER_21_273
*574 FILLER_21_279
*575 FILLER_21_281
*576 FILLER_21_293
*577 FILLER_21_3
*578 FILLER_21_38
*579 FILLER_21_51
*580 FILLER_21_55
*581 FILLER_21_57
*582 FILLER_21_69
*583 FILLER_21_81
*584 FILLER_21_93
*585 FILLER_22_109
*586 FILLER_22_121
*587 FILLER_22_133
*588 FILLER_22_139
*589 FILLER_22_141
*590 FILLER_22_153
*591 FILLER_22_165
*592 FILLER_22_177
*593 FILLER_22_189
*594 FILLER_22_195
*595 FILLER_22_197
*596 FILLER_22_20
*597 FILLER_22_209
*598 FILLER_22_221
*599 FILLER_22_233
*600 FILLER_22_245
*601 FILLER_22_251
*602 FILLER_22_253
*603 FILLER_22_265
*604 FILLER_22_277
*605 FILLER_22_289
*606 FILLER_22_29
*607 FILLER_22_297
*608 FILLER_22_3
*609 FILLER_22_41
*610 FILLER_22_52
*611 FILLER_22_64
*612 FILLER_22_76
*613 FILLER_22_8
*614 FILLER_22_85
*615 FILLER_22_97
*616 FILLER_23_104
*617 FILLER_23_113
*618 FILLER_23_125
*619 FILLER_23_137
*620 FILLER_23_149
*621 FILLER_23_161
*622 FILLER_23_167
*623 FILLER_23_169
*624 FILLER_23_181
*625 FILLER_23_193
*626 FILLER_23_20
*627 FILLER_23_205
*628 FILLER_23_217
*629 FILLER_23_223
*630 FILLER_23_225
*631 FILLER_23_237
*632 FILLER_23_249
*633 FILLER_23_261
*634 FILLER_23_273
*635 FILLER_23_279
*636 FILLER_23_281
*637 FILLER_23_293
*638 FILLER_23_3
*639 FILLER_23_32
*640 FILLER_23_44
*641 FILLER_23_54
*642 FILLER_23_57
*643 FILLER_23_61
*644 FILLER_23_68
*645 FILLER_23_8
*646 FILLER_23_80
*647 FILLER_23_92
*648 FILLER_24_109
*649 FILLER_24_121
*650 FILLER_24_133
*651 FILLER_24_139
*652 FILLER_24_141
*653 FILLER_24_153
*654 FILLER_24_165
*655 FILLER_24_17
*656 FILLER_24_177
*657 FILLER_24_189
*658 FILLER_24_195
*659 FILLER_24_197
*660 FILLER_24_209
*661 FILLER_24_221
*662 FILLER_24_233
*663 FILLER_24_245
*664 FILLER_24_25
*665 FILLER_24_251
*666 FILLER_24_253
*667 FILLER_24_265
*668 FILLER_24_277
*669 FILLER_24_289
*670 FILLER_24_29
*671 FILLER_24_297
*672 FILLER_24_3
*673 FILLER_24_37
*674 FILLER_24_46
*675 FILLER_24_52
*676 FILLER_24_61
*677 FILLER_24_7
*678 FILLER_24_70
*679 FILLER_24_82
*680 FILLER_24_85
*681 FILLER_24_97
*682 FILLER_25_105
*683 FILLER_25_111
*684 FILLER_25_113
*685 FILLER_25_125
*686 FILLER_25_137
*687 FILLER_25_149
*688 FILLER_25_15
*689 FILLER_25_161
*690 FILLER_25_167
*691 FILLER_25_169
*692 FILLER_25_181
*693 FILLER_25_193
*694 FILLER_25_205
*695 FILLER_25_217
*696 FILLER_25_223
*697 FILLER_25_225
*698 FILLER_25_237
*699 FILLER_25_249
*700 FILLER_25_261
*701 FILLER_25_27
*702 FILLER_25_273
*703 FILLER_25_279
*704 FILLER_25_281
*705 FILLER_25_293
*706 FILLER_25_3
*707 FILLER_25_34
*708 FILLER_25_45
*709 FILLER_25_53
*710 FILLER_25_57
*711 FILLER_25_69
*712 FILLER_25_81
*713 FILLER_25_93
*714 FILLER_26_109
*715 FILLER_26_11
*716 FILLER_26_121
*717 FILLER_26_133
*718 FILLER_26_139
*719 FILLER_26_141
*720 FILLER_26_153
*721 FILLER_26_165
*722 FILLER_26_177
*723 FILLER_26_189
*724 FILLER_26_19
*725 FILLER_26_195
*726 FILLER_26_197
*727 FILLER_26_209
*728 FILLER_26_221
*729 FILLER_26_233
*730 FILLER_26_245
*731 FILLER_26_251
*732 FILLER_26_253
*733 FILLER_26_265
*734 FILLER_26_27
*735 FILLER_26_277
*736 FILLER_26_289
*737 FILLER_26_29
*738 FILLER_26_297
*739 FILLER_26_3
*740 FILLER_26_37
*741 FILLER_26_48
*742 FILLER_26_57
*743 FILLER_26_70
*744 FILLER_26_82
*745 FILLER_26_85
*746 FILLER_26_97
*747 FILLER_27_111
*748 FILLER_27_113
*749 FILLER_27_125
*750 FILLER_27_137
*751 FILLER_27_149
*752 FILLER_27_15
*753 FILLER_27_161
*754 FILLER_27_167
*755 FILLER_27_169
*756 FILLER_27_181
*757 FILLER_27_193
*758 FILLER_27_205
*759 FILLER_27_217
*760 FILLER_27_223
*761 FILLER_27_225
*762 FILLER_27_237
*763 FILLER_27_249
*764 FILLER_27_261
*765 FILLER_27_273
*766 FILLER_27_279
*767 FILLER_27_281
*768 FILLER_27_293
*769 FILLER_27_3
*770 FILLER_27_33
*771 FILLER_27_41
*772 FILLER_27_48
*773 FILLER_27_57
*774 FILLER_27_64
*775 FILLER_27_77
*776 FILLER_27_87
*777 FILLER_27_99
*778 FILLER_28_10
*779 FILLER_28_109
*780 FILLER_28_121
*781 FILLER_28_133
*782 FILLER_28_139
*783 FILLER_28_141
*784 FILLER_28_153
*785 FILLER_28_165
*786 FILLER_28_177
*787 FILLER_28_189
*788 FILLER_28_195
*789 FILLER_28_197
*790 FILLER_28_209
*791 FILLER_28_22
*792 FILLER_28_221
*793 FILLER_28_233
*794 FILLER_28_245
*795 FILLER_28_251
*796 FILLER_28_253
*797 FILLER_28_26
*798 FILLER_28_265
*799 FILLER_28_277
*800 FILLER_28_289
*801 FILLER_28_29
*802 FILLER_28_297
*803 FILLER_28_3
*804 FILLER_28_43
*805 FILLER_28_55
*806 FILLER_28_62
*807 FILLER_28_70
*808 FILLER_28_82
*809 FILLER_28_85
*810 FILLER_28_97
*811 FILLER_29_11
*812 FILLER_29_111
*813 FILLER_29_113
*814 FILLER_29_125
*815 FILLER_29_137
*816 FILLER_29_149
*817 FILLER_29_161
*818 FILLER_29_167
*819 FILLER_29_169
*820 FILLER_29_181
*821 FILLER_29_19
*822 FILLER_29_193
*823 FILLER_29_205
*824 FILLER_29_217
*825 FILLER_29_223
*826 FILLER_29_225
*827 FILLER_29_237
*828 FILLER_29_249
*829 FILLER_29_261
*830 FILLER_29_273
*831 FILLER_29_279
*832 FILLER_29_281
*833 FILLER_29_293
*834 FILLER_29_3
*835 FILLER_29_31
*836 FILLER_29_37
*837 FILLER_29_41
*838 FILLER_29_54
*839 FILLER_29_57
*840 FILLER_29_64
*841 FILLER_29_68
*842 FILLER_29_75
*843 FILLER_29_87
*844 FILLER_29_99
*845 FILLER_2_109
*846 FILLER_2_121
*847 FILLER_2_133
*848 FILLER_2_139
*849 FILLER_2_141
*850 FILLER_2_153
*851 FILLER_2_165
*852 FILLER_2_177
*853 FILLER_2_189
*854 FILLER_2_195
*855 FILLER_2_197
*856 FILLER_2_209
*857 FILLER_2_221
*858 FILLER_2_233
*859 FILLER_2_245
*860 FILLER_2_25
*861 FILLER_2_251
*862 FILLER_2_253
*863 FILLER_2_265
*864 FILLER_2_277
*865 FILLER_2_289
*866 FILLER_2_29
*867 FILLER_2_297
*868 FILLER_2_3
*869 FILLER_2_47
*870 FILLER_2_67
*871 FILLER_2_79
*872 FILLER_2_83
*873 FILLER_2_85
*874 FILLER_2_97
*875 FILLER_30_109
*876 FILLER_30_121
*877 FILLER_30_133
*878 FILLER_30_139
*879 FILLER_30_141
*880 FILLER_30_15
*881 FILLER_30_153
*882 FILLER_30_165
*883 FILLER_30_177
*884 FILLER_30_189
*885 FILLER_30_195
*886 FILLER_30_197
*887 FILLER_30_209
*888 FILLER_30_221
*889 FILLER_30_233
*890 FILLER_30_245
*891 FILLER_30_251
*892 FILLER_30_253
*893 FILLER_30_265
*894 FILLER_30_27
*895 FILLER_30_277
*896 FILLER_30_289
*897 FILLER_30_29
*898 FILLER_30_297
*899 FILLER_30_3
*900 FILLER_30_34
*901 FILLER_30_47
*902 FILLER_30_61
*903 FILLER_30_82
*904 FILLER_30_85
*905 FILLER_30_97
*906 FILLER_31_103
*907 FILLER_31_111
*908 FILLER_31_113
*909 FILLER_31_125
*910 FILLER_31_137
*911 FILLER_31_14
*912 FILLER_31_149
*913 FILLER_31_161
*914 FILLER_31_167
*915 FILLER_31_169
*916 FILLER_31_181
*917 FILLER_31_193
*918 FILLER_31_205
*919 FILLER_31_217
*920 FILLER_31_223
*921 FILLER_31_225
*922 FILLER_31_23
*923 FILLER_31_237
*924 FILLER_31_249
*925 FILLER_31_261
*926 FILLER_31_273
*927 FILLER_31_279
*928 FILLER_31_281
*929 FILLER_31_293
*930 FILLER_31_3
*931 FILLER_31_35
*932 FILLER_31_41
*933 FILLER_31_53
*934 FILLER_31_57
*935 FILLER_31_63
*936 FILLER_31_69
*937 FILLER_31_8
*938 FILLER_31_80
*939 FILLER_31_91
*940 FILLER_32_109
*941 FILLER_32_121
*942 FILLER_32_133
*943 FILLER_32_139
*944 FILLER_32_141
*945 FILLER_32_15
*946 FILLER_32_153
*947 FILLER_32_165
*948 FILLER_32_177
*949 FILLER_32_189
*950 FILLER_32_195
*951 FILLER_32_197
*952 FILLER_32_209
*953 FILLER_32_221
*954 FILLER_32_233
*955 FILLER_32_24
*956 FILLER_32_245
*957 FILLER_32_251
*958 FILLER_32_253
*959 FILLER_32_265
*960 FILLER_32_277
*961 FILLER_32_289
*962 FILLER_32_29
*963 FILLER_32_297
*964 FILLER_32_3
*965 FILLER_32_41
*966 FILLER_32_53
*967 FILLER_32_61
*968 FILLER_32_73
*969 FILLER_32_81
*970 FILLER_32_85
*971 FILLER_32_97
*972 FILLER_33_103
*973 FILLER_33_111
*974 FILLER_33_113
*975 FILLER_33_125
*976 FILLER_33_137
*977 FILLER_33_149
*978 FILLER_33_15
*979 FILLER_33_161
*980 FILLER_33_167
*981 FILLER_33_169
*982 FILLER_33_181
*983 FILLER_33_193
*984 FILLER_33_205
*985 FILLER_33_217
*986 FILLER_33_223
*987 FILLER_33_225
*988 FILLER_33_237
*989 FILLER_33_249
*990 FILLER_33_261
*991 FILLER_33_273
*992 FILLER_33_279
*993 FILLER_33_281
*994 FILLER_33_293
*995 FILLER_33_3
*996 FILLER_33_31
*997 FILLER_33_43
*998 FILLER_33_53
*999 FILLER_33_57
*1000 FILLER_33_67
*1001 FILLER_33_79
*1002 FILLER_33_91
*1003 FILLER_34_109
*1004 FILLER_34_121
*1005 FILLER_34_13
*1006 FILLER_34_133
*1007 FILLER_34_139
*1008 FILLER_34_141
*1009 FILLER_34_153
*1010 FILLER_34_165
*1011 FILLER_34_177
*1012 FILLER_34_189
*1013 FILLER_34_195
*1014 FILLER_34_197
*1015 FILLER_34_209
*1016 FILLER_34_221
*1017 FILLER_34_233
*1018 FILLER_34_245
*1019 FILLER_34_25
*1020 FILLER_34_251
*1021 FILLER_34_253
*1022 FILLER_34_265
*1023 FILLER_34_277
*1024 FILLER_34_289
*1025 FILLER_34_29
*1026 FILLER_34_297
*1027 FILLER_34_3
*1028 FILLER_34_41
*1029 FILLER_34_56
*1030 FILLER_34_62
*1031 FILLER_34_71
*1032 FILLER_34_82
*1033 FILLER_34_85
*1034 FILLER_34_97
*1035 FILLER_35_106
*1036 FILLER_35_113
*1037 FILLER_35_125
*1038 FILLER_35_137
*1039 FILLER_35_149
*1040 FILLER_35_15
*1041 FILLER_35_161
*1042 FILLER_35_167
*1043 FILLER_35_169
*1044 FILLER_35_181
*1045 FILLER_35_193
*1046 FILLER_35_205
*1047 FILLER_35_217
*1048 FILLER_35_223
*1049 FILLER_35_225
*1050 FILLER_35_237
*1051 FILLER_35_249
*1052 FILLER_35_261
*1053 FILLER_35_27
*1054 FILLER_35_273
*1055 FILLER_35_279
*1056 FILLER_35_281
*1057 FILLER_35_293
*1058 FILLER_35_3
*1059 FILLER_35_39
*1060 FILLER_35_49
*1061 FILLER_35_55
*1062 FILLER_35_57
*1063 FILLER_35_72
*1064 FILLER_35_82
*1065 FILLER_35_94
*1066 FILLER_36_109
*1067 FILLER_36_121
*1068 FILLER_36_133
*1069 FILLER_36_139
*1070 FILLER_36_141
*1071 FILLER_36_15
*1072 FILLER_36_153
*1073 FILLER_36_165
*1074 FILLER_36_177
*1075 FILLER_36_189
*1076 FILLER_36_195
*1077 FILLER_36_197
*1078 FILLER_36_209
*1079 FILLER_36_221
*1080 FILLER_36_233
*1081 FILLER_36_24
*1082 FILLER_36_245
*1083 FILLER_36_251
*1084 FILLER_36_253
*1085 FILLER_36_265
*1086 FILLER_36_277
*1087 FILLER_36_289
*1088 FILLER_36_29
*1089 FILLER_36_297
*1090 FILLER_36_3
*1091 FILLER_36_41
*1092 FILLER_36_45
*1093 FILLER_36_53
*1094 FILLER_36_61
*1095 FILLER_36_71
*1096 FILLER_36_83
*1097 FILLER_36_85
*1098 FILLER_36_97
*1099 FILLER_37_105
*1100 FILLER_37_111
*1101 FILLER_37_113
*1102 FILLER_37_12
*1103 FILLER_37_125
*1104 FILLER_37_137
*1105 FILLER_37_149
*1106 FILLER_37_161
*1107 FILLER_37_167
*1108 FILLER_37_169
*1109 FILLER_37_181
*1110 FILLER_37_193
*1111 FILLER_37_205
*1112 FILLER_37_21
*1113 FILLER_37_217
*1114 FILLER_37_223
*1115 FILLER_37_225
*1116 FILLER_37_237
*1117 FILLER_37_249
*1118 FILLER_37_261
*1119 FILLER_37_273
*1120 FILLER_37_279
*1121 FILLER_37_281
*1122 FILLER_37_293
*1123 FILLER_37_3
*1124 FILLER_37_33
*1125 FILLER_37_45
*1126 FILLER_37_53
*1127 FILLER_37_57
*1128 FILLER_37_69
*1129 FILLER_37_7
*1130 FILLER_37_81
*1131 FILLER_37_93
*1132 FILLER_38_109
*1133 FILLER_38_12
*1134 FILLER_38_121
*1135 FILLER_38_133
*1136 FILLER_38_139
*1137 FILLER_38_141
*1138 FILLER_38_153
*1139 FILLER_38_165
*1140 FILLER_38_177
*1141 FILLER_38_189
*1142 FILLER_38_195
*1143 FILLER_38_197
*1144 FILLER_38_209
*1145 FILLER_38_221
*1146 FILLER_38_233
*1147 FILLER_38_24
*1148 FILLER_38_245
*1149 FILLER_38_251
*1150 FILLER_38_253
*1151 FILLER_38_265
*1152 FILLER_38_277
*1153 FILLER_38_289
*1154 FILLER_38_29
*1155 FILLER_38_297
*1156 FILLER_38_3
*1157 FILLER_38_41
*1158 FILLER_38_49
*1159 FILLER_38_61
*1160 FILLER_38_73
*1161 FILLER_38_81
*1162 FILLER_38_85
*1163 FILLER_38_97
*1164 FILLER_39_109
*1165 FILLER_39_113
*1166 FILLER_39_125
*1167 FILLER_39_137
*1168 FILLER_39_149
*1169 FILLER_39_15
*1170 FILLER_39_161
*1171 FILLER_39_167
*1172 FILLER_39_169
*1173 FILLER_39_181
*1174 FILLER_39_193
*1175 FILLER_39_205
*1176 FILLER_39_217
*1177 FILLER_39_223
*1178 FILLER_39_225
*1179 FILLER_39_23
*1180 FILLER_39_237
*1181 FILLER_39_249
*1182 FILLER_39_261
*1183 FILLER_39_273
*1184 FILLER_39_279
*1185 FILLER_39_281
*1186 FILLER_39_293
*1187 FILLER_39_3
*1188 FILLER_39_35
*1189 FILLER_39_46
*1190 FILLER_39_54
*1191 FILLER_39_57
*1192 FILLER_39_65
*1193 FILLER_39_77
*1194 FILLER_39_89
*1195 FILLER_39_97
*1196 FILLER_3_105
*1197 FILLER_3_111
*1198 FILLER_3_113
*1199 FILLER_3_125
*1200 FILLER_3_137
*1201 FILLER_3_149
*1202 FILLER_3_15
*1203 FILLER_3_161
*1204 FILLER_3_167
*1205 FILLER_3_169
*1206 FILLER_3_181
*1207 FILLER_3_193
*1208 FILLER_3_205
*1209 FILLER_3_217
*1210 FILLER_3_223
*1211 FILLER_3_225
*1212 FILLER_3_237
*1213 FILLER_3_249
*1214 FILLER_3_261
*1215 FILLER_3_273
*1216 FILLER_3_279
*1217 FILLER_3_281
*1218 FILLER_3_293
*1219 FILLER_3_3
*1220 FILLER_3_39
*1221 FILLER_3_51
*1222 FILLER_3_55
*1223 FILLER_3_57
*1224 FILLER_3_69
*1225 FILLER_3_81
*1226 FILLER_3_93
*1227 FILLER_40_109
*1228 FILLER_40_121
*1229 FILLER_40_133
*1230 FILLER_40_139
*1231 FILLER_40_141
*1232 FILLER_40_15
*1233 FILLER_40_153
*1234 FILLER_40_165
*1235 FILLER_40_177
*1236 FILLER_40_189
*1237 FILLER_40_19
*1238 FILLER_40_195
*1239 FILLER_40_197
*1240 FILLER_40_209
*1241 FILLER_40_221
*1242 FILLER_40_233
*1243 FILLER_40_24
*1244 FILLER_40_245
*1245 FILLER_40_251
*1246 FILLER_40_253
*1247 FILLER_40_265
*1248 FILLER_40_277
*1249 FILLER_40_289
*1250 FILLER_40_29
*1251 FILLER_40_297
*1252 FILLER_40_3
*1253 FILLER_40_49
*1254 FILLER_40_57
*1255 FILLER_40_65
*1256 FILLER_40_77
*1257 FILLER_40_83
*1258 FILLER_40_85
*1259 FILLER_40_97
*1260 FILLER_41_105
*1261 FILLER_41_111
*1262 FILLER_41_113
*1263 FILLER_41_125
*1264 FILLER_41_137
*1265 FILLER_41_149
*1266 FILLER_41_15
*1267 FILLER_41_161
*1268 FILLER_41_167
*1269 FILLER_41_169
*1270 FILLER_41_181
*1271 FILLER_41_19
*1272 FILLER_41_193
*1273 FILLER_41_205
*1274 FILLER_41_217
*1275 FILLER_41_223
*1276 FILLER_41_225
*1277 FILLER_41_237
*1278 FILLER_41_249
*1279 FILLER_41_25
*1280 FILLER_41_261
*1281 FILLER_41_273
*1282 FILLER_41_279
*1283 FILLER_41_281
*1284 FILLER_41_29
*1285 FILLER_41_293
*1286 FILLER_41_3
*1287 FILLER_41_37
*1288 FILLER_41_45
*1289 FILLER_41_54
*1290 FILLER_41_57
*1291 FILLER_41_69
*1292 FILLER_41_81
*1293 FILLER_41_93
*1294 FILLER_42_109
*1295 FILLER_42_121
*1296 FILLER_42_133
*1297 FILLER_42_139
*1298 FILLER_42_141
*1299 FILLER_42_15
*1300 FILLER_42_153
*1301 FILLER_42_165
*1302 FILLER_42_177
*1303 FILLER_42_189
*1304 FILLER_42_19
*1305 FILLER_42_195
*1306 FILLER_42_197
*1307 FILLER_42_209
*1308 FILLER_42_221
*1309 FILLER_42_233
*1310 FILLER_42_245
*1311 FILLER_42_251
*1312 FILLER_42_253
*1313 FILLER_42_26
*1314 FILLER_42_265
*1315 FILLER_42_277
*1316 FILLER_42_289
*1317 FILLER_42_29
*1318 FILLER_42_297
*1319 FILLER_42_3
*1320 FILLER_42_41
*1321 FILLER_42_55
*1322 FILLER_42_67
*1323 FILLER_42_79
*1324 FILLER_42_83
*1325 FILLER_42_85
*1326 FILLER_42_97
*1327 FILLER_43_105
*1328 FILLER_43_111
*1329 FILLER_43_113
*1330 FILLER_43_125
*1331 FILLER_43_137
*1332 FILLER_43_149
*1333 FILLER_43_15
*1334 FILLER_43_161
*1335 FILLER_43_167
*1336 FILLER_43_169
*1337 FILLER_43_181
*1338 FILLER_43_193
*1339 FILLER_43_205
*1340 FILLER_43_217
*1341 FILLER_43_223
*1342 FILLER_43_225
*1343 FILLER_43_237
*1344 FILLER_43_249
*1345 FILLER_43_261
*1346 FILLER_43_27
*1347 FILLER_43_273
*1348 FILLER_43_279
*1349 FILLER_43_281
*1350 FILLER_43_293
*1351 FILLER_43_3
*1352 FILLER_43_33
*1353 FILLER_43_39
*1354 FILLER_43_51
*1355 FILLER_43_55
*1356 FILLER_43_57
*1357 FILLER_43_69
*1358 FILLER_43_81
*1359 FILLER_43_93
*1360 FILLER_44_109
*1361 FILLER_44_11
*1362 FILLER_44_121
*1363 FILLER_44_133
*1364 FILLER_44_139
*1365 FILLER_44_141
*1366 FILLER_44_153
*1367 FILLER_44_165
*1368 FILLER_44_177
*1369 FILLER_44_189
*1370 FILLER_44_195
*1371 FILLER_44_197
*1372 FILLER_44_209
*1373 FILLER_44_221
*1374 FILLER_44_23
*1375 FILLER_44_233
*1376 FILLER_44_245
*1377 FILLER_44_251
*1378 FILLER_44_253
*1379 FILLER_44_265
*1380 FILLER_44_27
*1381 FILLER_44_277
*1382 FILLER_44_289
*1383 FILLER_44_29
*1384 FILLER_44_297
*1385 FILLER_44_3
*1386 FILLER_44_36
*1387 FILLER_44_48
*1388 FILLER_44_60
*1389 FILLER_44_72
*1390 FILLER_44_85
*1391 FILLER_44_97
*1392 FILLER_45_105
*1393 FILLER_45_111
*1394 FILLER_45_113
*1395 FILLER_45_125
*1396 FILLER_45_137
*1397 FILLER_45_149
*1398 FILLER_45_15
*1399 FILLER_45_161
*1400 FILLER_45_167
*1401 FILLER_45_169
*1402 FILLER_45_181
*1403 FILLER_45_193
*1404 FILLER_45_205
*1405 FILLER_45_217
*1406 FILLER_45_223
*1407 FILLER_45_225
*1408 FILLER_45_237
*1409 FILLER_45_249
*1410 FILLER_45_261
*1411 FILLER_45_27
*1412 FILLER_45_273
*1413 FILLER_45_279
*1414 FILLER_45_281
*1415 FILLER_45_293
*1416 FILLER_45_3
*1417 FILLER_45_39
*1418 FILLER_45_51
*1419 FILLER_45_55
*1420 FILLER_45_57
*1421 FILLER_45_69
*1422 FILLER_45_81
*1423 FILLER_45_93
*1424 FILLER_46_109
*1425 FILLER_46_121
*1426 FILLER_46_133
*1427 FILLER_46_139
*1428 FILLER_46_141
*1429 FILLER_46_15
*1430 FILLER_46_153
*1431 FILLER_46_165
*1432 FILLER_46_177
*1433 FILLER_46_189
*1434 FILLER_46_195
*1435 FILLER_46_197
*1436 FILLER_46_209
*1437 FILLER_46_221
*1438 FILLER_46_233
*1439 FILLER_46_245
*1440 FILLER_46_251
*1441 FILLER_46_253
*1442 FILLER_46_265
*1443 FILLER_46_27
*1444 FILLER_46_277
*1445 FILLER_46_289
*1446 FILLER_46_29
*1447 FILLER_46_297
*1448 FILLER_46_3
*1449 FILLER_46_41
*1450 FILLER_46_53
*1451 FILLER_46_65
*1452 FILLER_46_77
*1453 FILLER_46_83
*1454 FILLER_46_85
*1455 FILLER_46_97
*1456 FILLER_47_105
*1457 FILLER_47_111
*1458 FILLER_47_113
*1459 FILLER_47_125
*1460 FILLER_47_137
*1461 FILLER_47_149
*1462 FILLER_47_161
*1463 FILLER_47_167
*1464 FILLER_47_169
*1465 FILLER_47_181
*1466 FILLER_47_193
*1467 FILLER_47_205
*1468 FILLER_47_21
*1469 FILLER_47_217
*1470 FILLER_47_223
*1471 FILLER_47_225
*1472 FILLER_47_237
*1473 FILLER_47_249
*1474 FILLER_47_261
*1475 FILLER_47_273
*1476 FILLER_47_279
*1477 FILLER_47_281
*1478 FILLER_47_293
*1479 FILLER_47_3
*1480 FILLER_47_33
*1481 FILLER_47_45
*1482 FILLER_47_53
*1483 FILLER_47_57
*1484 FILLER_47_69
*1485 FILLER_47_81
*1486 FILLER_47_9
*1487 FILLER_47_93
*1488 FILLER_48_109
*1489 FILLER_48_121
*1490 FILLER_48_133
*1491 FILLER_48_139
*1492 FILLER_48_141
*1493 FILLER_48_15
*1494 FILLER_48_153
*1495 FILLER_48_165
*1496 FILLER_48_177
*1497 FILLER_48_189
*1498 FILLER_48_195
*1499 FILLER_48_197
*1500 FILLER_48_209
*1501 FILLER_48_221
*1502 FILLER_48_233
*1503 FILLER_48_245
*1504 FILLER_48_251
*1505 FILLER_48_253
*1506 FILLER_48_265
*1507 FILLER_48_27
*1508 FILLER_48_277
*1509 FILLER_48_289
*1510 FILLER_48_29
*1511 FILLER_48_297
*1512 FILLER_48_3
*1513 FILLER_48_41
*1514 FILLER_48_47
*1515 FILLER_48_59
*1516 FILLER_48_71
*1517 FILLER_48_83
*1518 FILLER_48_85
*1519 FILLER_48_97
*1520 FILLER_49_105
*1521 FILLER_49_111
*1522 FILLER_49_113
*1523 FILLER_49_125
*1524 FILLER_49_137
*1525 FILLER_49_149
*1526 FILLER_49_15
*1527 FILLER_49_161
*1528 FILLER_49_167
*1529 FILLER_49_169
*1530 FILLER_49_181
*1531 FILLER_49_193
*1532 FILLER_49_205
*1533 FILLER_49_217
*1534 FILLER_49_223
*1535 FILLER_49_225
*1536 FILLER_49_237
*1537 FILLER_49_249
*1538 FILLER_49_261
*1539 FILLER_49_27
*1540 FILLER_49_273
*1541 FILLER_49_279
*1542 FILLER_49_281
*1543 FILLER_49_293
*1544 FILLER_49_3
*1545 FILLER_49_39
*1546 FILLER_49_51
*1547 FILLER_49_55
*1548 FILLER_49_57
*1549 FILLER_49_69
*1550 FILLER_49_81
*1551 FILLER_49_93
*1552 FILLER_4_109
*1553 FILLER_4_121
*1554 FILLER_4_133
*1555 FILLER_4_139
*1556 FILLER_4_141
*1557 FILLER_4_153
*1558 FILLER_4_165
*1559 FILLER_4_177
*1560 FILLER_4_189
*1561 FILLER_4_195
*1562 FILLER_4_197
*1563 FILLER_4_209
*1564 FILLER_4_221
*1565 FILLER_4_233
*1566 FILLER_4_245
*1567 FILLER_4_251
*1568 FILLER_4_253
*1569 FILLER_4_26
*1570 FILLER_4_265
*1571 FILLER_4_277
*1572 FILLER_4_289
*1573 FILLER_4_29
*1574 FILLER_4_297
*1575 FILLER_4_3
*1576 FILLER_4_47
*1577 FILLER_4_59
*1578 FILLER_4_71
*1579 FILLER_4_83
*1580 FILLER_4_85
*1581 FILLER_4_9
*1582 FILLER_4_97
*1583 FILLER_50_109
*1584 FILLER_50_121
*1585 FILLER_50_133
*1586 FILLER_50_139
*1587 FILLER_50_141
*1588 FILLER_50_15
*1589 FILLER_50_153
*1590 FILLER_50_165
*1591 FILLER_50_177
*1592 FILLER_50_189
*1593 FILLER_50_195
*1594 FILLER_50_197
*1595 FILLER_50_209
*1596 FILLER_50_221
*1597 FILLER_50_233
*1598 FILLER_50_245
*1599 FILLER_50_251
*1600 FILLER_50_253
*1601 FILLER_50_265
*1602 FILLER_50_27
*1603 FILLER_50_277
*1604 FILLER_50_289
*1605 FILLER_50_29
*1606 FILLER_50_297
*1607 FILLER_50_3
*1608 FILLER_50_41
*1609 FILLER_50_53
*1610 FILLER_50_65
*1611 FILLER_50_77
*1612 FILLER_50_83
*1613 FILLER_50_85