*SPEF "ieee 1481-1999"
*DESIGN "aidan_McCoy"
*DATE "11:11:11 Fri 11 11, 1111"
*VENDOR "OpenRCX"
*PROGRAM "Parallel Extraction"
*VERSION "1.0"
*DESIGN_FLOW "NAME_SCOPE LOCAL" "PIN_CAP NONE"
*DIVIDER /
*DELIMITER :
*BUS_DELIMITER []
*T_UNIT 1 NS
*C_UNIT 1 PF
*R_UNIT 1 OHM
*L_UNIT 1 HENRY

*NAME_MAP
*1 io_in[0]
*2 io_in[1]
*3 io_in[2]
*4 io_in[3]
*5 io_in[4]
*6 io_in[5]
*7 io_in[6]
*8 io_in[7]
*9 io_out[0]
*10 io_out[1]
*11 io_out[2]
*12 io_out[3]
*13 io_out[4]
*14 io_out[5]
*15 io_out[6]
*16 io_out[7]
*19 _072_
*20 _073_
*21 _074_
*22 _075_
*23 _076_
*24 _077_
*25 _078_
*26 _079_
*27 _080_
*28 _081_
*29 _082_
*30 _083_
*31 _084_
*32 _085_
*33 _086_
*34 _087_
*35 _088_
*36 _089_
*37 _090_
*38 _091_
*39 _092_
*40 _093_
*41 _094_
*42 _095_
*43 _096_
*44 _097_
*45 _098_
*46 _099_
*47 _100_
*48 _101_
*49 _102_
*50 _103_
*51 _104_
*52 _105_
*53 _106_
*54 _107_
*55 _108_
*56 _109_
*57 _110_
*58 _111_
*59 _112_
*60 _113_
*61 _114_
*62 _115_
*63 _116_
*64 _117_
*65 _118_
*66 _119_
*67 _120_
*68 _121_
*69 _122_
*70 _123_
*71 _124_
*72 _125_
*73 _126_
*74 _127_
*75 _128_
*76 _129_
*77 _130_
*78 _131_
*79 _132_
*80 _133_
*81 _134_
*82 _135_
*83 _136_
*84 _137_
*85 _138_
*86 _139_
*87 _140_
*88 _141_
*89 _142_
*90 _143_
*91 _144_
*92 _145_
*93 _146_
*94 _147_
*95 _148_
*96 _149_
*97 _150_
*98 _151_
*99 _152_
*100 _153_
*101 _154_
*102 _155_
*103 _156_
*104 _157_
*105 _158_
*106 _159_
*107 _160_
*108 _161_
*109 _162_
*110 _163_
*111 _164_
*112 _165_
*113 _166_
*114 _167_
*115 _168_
*116 _169_
*117 _170_
*118 _171_
*119 _172_
*120 _173_
*121 _174_
*122 _175_
*123 _176_
*124 _177_
*125 _178_
*126 _179_
*127 _180_
*128 _181_
*129 _182_
*130 _183_
*131 _184_
*132 _185_
*133 _186_
*134 _187_
*135 _188_
*136 _189_
*137 _190_
*138 _191_
*139 _192_
*140 _193_
*141 _194_
*142 _195_
*143 _196_
*144 _197_
*145 _198_
*146 _199_
*147 _200_
*148 _201_
*149 _202_
*150 _203_
*151 _204_
*152 _205_
*153 _206_
*154 _207_
*155 _208_
*156 _209_
*157 _210_
*158 _211_
*159 _212_
*160 _213_
*161 _214_
*162 _215_
*163 _216_
*164 _217_
*165 _218_
*166 _219_
*167 _220_
*168 _221_
*169 _222_
*170 _223_
*171 _224_
*172 _225_
*173 _226_
*174 _227_
*175 _228_
*176 _229_
*177 _230_
*178 _231_
*179 _232_
*180 _233_
*181 _234_
*182 _235_
*183 _236_
*184 _237_
*185 _238_
*186 _239_
*187 _240_
*188 _241_
*189 _242_
*190 _243_
*191 _244_
*192 _245_
*193 _246_
*194 _247_
*195 _248_
*196 _249_
*197 _250_
*198 _251_
*199 _252_
*200 _253_
*201 _254_
*202 _255_
*203 _256_
*204 _257_
*205 _258_
*206 _259_
*207 _260_
*208 _261_
*209 _262_
*210 _263_
*211 _264_
*212 _265_
*213 _266_
*214 _267_
*215 _268_
*216 _269_
*217 _270_
*218 _271_
*219 _272_
*220 _273_
*221 _274_
*222 _275_
*223 _276_
*224 _277_
*225 _278_
*226 _279_
*227 _280_
*228 _281_
*229 _282_
*230 _283_
*231 _284_
*232 _285_
*233 _286_
*234 _287_
*235 _288_
*236 _289_
*237 _290_
*238 _291_
*239 _292_
*240 _293_
*241 _294_
*242 _295_
*243 _296_
*244 _297_
*245 _298_
*246 _299_
*247 _300_
*248 _301_
*249 _302_
*250 _303_
*251 _304_
*252 _305_
*253 _306_
*254 _307_
*255 _308_
*256 _309_
*257 _310_
*258 _311_
*259 _312_
*260 _313_
*261 _314_
*262 _315_
*263 _316_
*264 _317_
*265 _318_
*266 _319_
*267 _320_
*268 _321_
*269 _322_
*270 _323_
*271 _324_
*272 _325_
*273 _326_
*274 _327_
*275 _328_
*276 _329_
*277 _330_
*278 _331_
*279 _332_
*280 _333_
*281 _334_
*282 _335_
*283 _336_
*284 _337_
*285 _338_
*286 _339_
*287 _340_
*288 _341_
*289 _342_
*290 _343_
*291 _344_
*292 _345_
*293 _346_
*294 _347_
*295 _348_
*296 _349_
*297 _350_
*298 _351_
*299 _352_
*300 _353_
*301 _354_
*302 _355_
*303 _356_
*304 _357_
*305 _358_
*306 _359_
*307 _360_
*308 _361_
*309 _362_
*310 _363_
*311 _364_
*312 _365_
*313 _366_
*314 _367_
*315 _368_
*316 _369_
*317 _370_
*318 _371_
*319 _372_
*320 _373_
*321 _374_
*322 _375_
*323 _376_
*324 _377_
*325 _378_
*326 _379_
*327 _380_
*328 _381_
*329 _382_
*330 _383_
*331 _384_
*332 _385_
*333 _386_
*334 _387_
*335 _388_
*336 _389_
*337 _390_
*338 _391_
*339 _392_
*340 _393_
*341 _394_
*342 _395_
*343 _396_
*344 _397_
*345 _398_
*346 _399_
*347 _400_
*348 _401_
*349 _402_
*350 _403_
*351 _404_
*352 _405_
*353 _406_
*354 _407_
*355 adder\.in\[0\]
*356 adder\.in\[1\]
*357 adder\.in\[2\]
*358 adder\.in\[3\]
*359 adder\.in\[4\]
*360 adder\.in\[5\]
*361 adder\.in\[6\]
*362 adder\.in\[7\]
*363 branchBlock\.x8\[0\]
*364 branchBlock\.x8\[1\]
*365 branchBlock\.x8\[2\]
*366 branchBlock\.x8\[3\]
*367 branchBlock\.x8\[4\]
*368 branchBlock\.x8\[5\]
*369 branchBlock\.x8\[6\]
*370 branchBlock\.x8\[7\]
*371 clknet_0__392_
*372 clknet_0__401_
*373 clknet_0__402_
*374 clknet_0__403_
*375 clknet_0__404_
*376 clknet_0__405_
*377 clknet_0__406_
*378 clknet_0__407_
*379 clknet_0_io_in[0]
*380 clknet_1_0__leaf__392_
*381 clknet_1_0__leaf__401_
*382 clknet_1_0__leaf__402_
*383 clknet_1_0__leaf__403_
*384 clknet_1_0__leaf__404_
*385 clknet_1_0__leaf__405_
*386 clknet_1_0__leaf__406_
*387 clknet_1_0__leaf__407_
*388 clknet_1_0__leaf_io_in[0]
*389 clknet_1_1__leaf__392_
*390 clknet_1_1__leaf__401_
*391 clknet_1_1__leaf__402_
*392 clknet_1_1__leaf__403_
*393 clknet_1_1__leaf__404_
*394 clknet_1_1__leaf__405_
*395 clknet_1_1__leaf__406_
*396 clknet_1_1__leaf__407_
*397 clknet_1_1__leaf_io_in[0]
*398 net1
*399 net10
*400 net11
*401 net12
*402 net13
*403 net14
*404 net15
*405 net16
*406 net17
*407 net18
*408 net19
*409 net2
*410 net20
*411 net21
*412 net22
*413 net23
*414 net24
*415 net25
*416 net26
*417 net27
*418 net28
*419 net29
*420 net3
*421 net30
*422 net31
*423 net32
*424 net33
*425 net34
*426 net35
*427 net36
*428 net37
*429 net38
*430 net39
*431 net4
*432 net40
*433 net41
*434 net42
*435 net43
*436 net44
*437 net45
*438 net46
*439 net47
*440 net48
*441 net49
*442 net5
*443 net50
*444 net51
*445 net52
*446 net53
*447 net54
*448 net55
*449 net56
*450 net57
*451 net58
*452 net59
*453 net6
*454 net60
*455 net61
*456 net62
*457 net63
*458 net64
*459 net65
*460 net66
*461 net67
*462 net68
*463 net69
*464 net7
*465 net70
*466 net71
*467 net72
*468 net73
*469 net74
*470 net75
*471 net76
*472 net77
*473 net78
*474 net79
*475 net8
*476 net9
*477 regBlock\.registers\[1\]\[0\]
*478 regBlock\.registers\[1\]\[1\]
*479 regBlock\.registers\[1\]\[2\]
*480 regBlock\.registers\[1\]\[3\]
*481 regBlock\.registers\[1\]\[4\]
*482 regBlock\.registers\[1\]\[5\]
*483 regBlock\.registers\[1\]\[6\]
*484 regBlock\.registers\[1\]\[7\]
*485 regBlock\.registers\[2\]\[0\]
*486 regBlock\.registers\[2\]\[1\]
*487 regBlock\.registers\[2\]\[2\]
*488 regBlock\.registers\[2\]\[3\]
*489 regBlock\.registers\[2\]\[4\]
*490 regBlock\.registers\[2\]\[5\]
*491 regBlock\.registers\[2\]\[6\]
*492 regBlock\.registers\[2\]\[7\]
*493 regBlock\.registers\[3\]\[0\]
*494 regBlock\.registers\[3\]\[1\]
*495 regBlock\.registers\[3\]\[2\]
*496 regBlock\.registers\[3\]\[3\]
*497 regBlock\.registers\[3\]\[4\]
*498 regBlock\.registers\[3\]\[5\]
*499 regBlock\.registers\[3\]\[6\]
*500 regBlock\.registers\[3\]\[7\]
*501 regBlock\.registers\[4\]\[0\]
*502 regBlock\.registers\[4\]\[1\]
*503 regBlock\.registers\[4\]\[2\]
*504 regBlock\.registers\[4\]\[3\]
*505 regBlock\.registers\[4\]\[4\]
*506 regBlock\.registers\[4\]\[5\]
*507 regBlock\.registers\[4\]\[6\]
*508 regBlock\.registers\[4\]\[7\]
*509 regBlock\.registers\[5\]\[0\]
*510 regBlock\.registers\[5\]\[1\]
*511 regBlock\.registers\[5\]\[2\]
*512 regBlock\.registers\[5\]\[3\]
*513 regBlock\.registers\[5\]\[4\]
*514 regBlock\.registers\[5\]\[5\]
*515 regBlock\.registers\[5\]\[6\]
*516 regBlock\.registers\[5\]\[7\]
*517 regBlock\.registers\[6\]\[0\]
*518 regBlock\.registers\[6\]\[1\]
*519 regBlock\.registers\[6\]\[2\]
*520 regBlock\.registers\[6\]\[3\]
*521 regBlock\.registers\[6\]\[4\]
*522 regBlock\.registers\[6\]\[5\]
*523 regBlock\.registers\[6\]\[6\]
*524 regBlock\.registers\[6\]\[7\]
*525 regBlock\.registers\[7\]\[0\]
*526 regBlock\.registers\[7\]\[1\]
*527 regBlock\.registers\[7\]\[2\]
*528 regBlock\.registers\[7\]\[3\]
*529 regBlock\.registers\[7\]\[4\]
*530 regBlock\.registers\[7\]\[5\]
*531 regBlock\.registers\[7\]\[6\]
*532 regBlock\.registers\[7\]\[7\]
*533 ANTENNA_1
*534 ANTENNA_2
*535 ANTENNA_3
*536 ANTENNA_4
*537 FILLER_0_109
*538 FILLER_0_113
*539 FILLER_0_125
*540 FILLER_0_137
*541 FILLER_0_141
*542 FILLER_0_15
*543 FILLER_0_153
*544 FILLER_0_165
*545 FILLER_0_169
*546 FILLER_0_181
*547 FILLER_0_193
*548 FILLER_0_197
*549 FILLER_0_209
*550 FILLER_0_221
*551 FILLER_0_225
*552 FILLER_0_237
*553 FILLER_0_249
*554 FILLER_0_253
*555 FILLER_0_265
*556 FILLER_0_27
*557 FILLER_0_277
*558 FILLER_0_281
*559 FILLER_0_29
*560 FILLER_0_293
*561 FILLER_0_3
*562 FILLER_0_35
*563 FILLER_0_42
*564 FILLER_0_54
*565 FILLER_0_57
*566 FILLER_0_69
*567 FILLER_0_81
*568 FILLER_0_85
*569 FILLER_0_97
*570 FILLER_10_102
*571 FILLER_10_117
*572 FILLER_10_125
*573 FILLER_10_130
*574 FILLER_10_138
*575 FILLER_10_141
*576 FILLER_10_146
*577 FILLER_10_158
*578 FILLER_10_17
*579 FILLER_10_170
*580 FILLER_10_182
*581 FILLER_10_194
*582 FILLER_10_197
*583 FILLER_10_209
*584 FILLER_10_22
*585 FILLER_10_221
*586 FILLER_10_233
*587 FILLER_10_245
*588 FILLER_10_251
*589 FILLER_10_253
*590 FILLER_10_265
*591 FILLER_10_277
*592 FILLER_10_289
*593 FILLER_10_29
*594 FILLER_10_297
*595 FILLER_10_3
*596 FILLER_10_35
*597 FILLER_10_48
*598 FILLER_10_54
*599 FILLER_10_60
*600 FILLER_10_69
*601 FILLER_10_82
*602 FILLER_10_85
*603 FILLER_10_9
*604 FILLER_11_110
*605 FILLER_11_113
*606 FILLER_11_124
*607 FILLER_11_141
*608 FILLER_11_147
*609 FILLER_11_155
*610 FILLER_11_16
*611 FILLER_11_167
*612 FILLER_11_169
*613 FILLER_11_180
*614 FILLER_11_192
*615 FILLER_11_204
*616 FILLER_11_216
*617 FILLER_11_225
*618 FILLER_11_237
*619 FILLER_11_24
*620 FILLER_11_249
*621 FILLER_11_261
*622 FILLER_11_273
*623 FILLER_11_279
*624 FILLER_11_281
*625 FILLER_11_29
*626 FILLER_11_293
*627 FILLER_11_3
*628 FILLER_11_37
*629 FILLER_11_41
*630 FILLER_11_49
*631 FILLER_11_54
*632 FILLER_11_57
*633 FILLER_11_65
*634 FILLER_11_82
*635 FILLER_11_9
*636 FILLER_11_95
*637 FILLER_12_113
*638 FILLER_12_138
*639 FILLER_12_141
*640 FILLER_12_146
*641 FILLER_12_154
*642 FILLER_12_164
*643 FILLER_12_172
*644 FILLER_12_184
*645 FILLER_12_197
*646 FILLER_12_209
*647 FILLER_12_21
*648 FILLER_12_221
*649 FILLER_12_233
*650 FILLER_12_245
*651 FILLER_12_251
*652 FILLER_12_253
*653 FILLER_12_265
*654 FILLER_12_27
*655 FILLER_12_277
*656 FILLER_12_289
*657 FILLER_12_29
*658 FILLER_12_297
*659 FILLER_12_3
*660 FILLER_12_38
*661 FILLER_12_42
*662 FILLER_12_52
*663 FILLER_12_59
*664 FILLER_12_70
*665 FILLER_12_78
*666 FILLER_12_82
*667 FILLER_12_85
*668 FILLER_12_89
*669 FILLER_12_99
*670 FILLER_13_10
*671 FILLER_13_109
*672 FILLER_13_113
*673 FILLER_13_119
*674 FILLER_13_127
*675 FILLER_13_133
*676 FILLER_13_141
*677 FILLER_13_152
*678 FILLER_13_165
*679 FILLER_13_169
*680 FILLER_13_17
*681 FILLER_13_180
*682 FILLER_13_193
*683 FILLER_13_206
*684 FILLER_13_218
*685 FILLER_13_225
*686 FILLER_13_237
*687 FILLER_13_249
*688 FILLER_13_261
*689 FILLER_13_273
*690 FILLER_13_279
*691 FILLER_13_281
*692 FILLER_13_293
*693 FILLER_13_3
*694 FILLER_13_37
*695 FILLER_13_50
*696 FILLER_13_57
*697 FILLER_13_65
*698 FILLER_13_72
*699 FILLER_13_76
*700 FILLER_13_85
*701 FILLER_13_98
*702 FILLER_14_111
*703 FILLER_14_125
*704 FILLER_14_129
*705 FILLER_14_138
*706 FILLER_14_141
*707 FILLER_14_147
*708 FILLER_14_151
*709 FILLER_14_164
*710 FILLER_14_172
*711 FILLER_14_184
*712 FILLER_14_197
*713 FILLER_14_208
*714 FILLER_14_21
*715 FILLER_14_220
*716 FILLER_14_232
*717 FILLER_14_244
*718 FILLER_14_253
*719 FILLER_14_265
*720 FILLER_14_27
*721 FILLER_14_277
*722 FILLER_14_289
*723 FILLER_14_29
*724 FILLER_14_297
*725 FILLER_14_3
*726 FILLER_14_34
*727 FILLER_14_41
*728 FILLER_14_54
*729 FILLER_14_62
*730 FILLER_14_69
*731 FILLER_14_80
*732 FILLER_14_85
*733 FILLER_14_98
*734 FILLER_15_105
*735 FILLER_15_111
*736 FILLER_15_113
*737 FILLER_15_124
*738 FILLER_15_132
*739 FILLER_15_154
*740 FILLER_15_161
*741 FILLER_15_167
*742 FILLER_15_169
*743 FILLER_15_180
*744 FILLER_15_191
*745 FILLER_15_204
*746 FILLER_15_216
*747 FILLER_15_225
*748 FILLER_15_237
*749 FILLER_15_249
*750 FILLER_15_261
*751 FILLER_15_27
*752 FILLER_15_273
*753 FILLER_15_279
*754 FILLER_15_281
*755 FILLER_15_293
*756 FILLER_15_3
*757 FILLER_15_47
*758 FILLER_15_54
*759 FILLER_15_57
*760 FILLER_15_62
*761 FILLER_15_71
*762 FILLER_15_84
*763 FILLER_15_88
*764 FILLER_15_92
*765 FILLER_16_105
*766 FILLER_16_117
*767 FILLER_16_125
*768 FILLER_16_131
*769 FILLER_16_138
*770 FILLER_16_141
*771 FILLER_16_152
*772 FILLER_16_163
*773 FILLER_16_174
*774 FILLER_16_186
*775 FILLER_16_194
*776 FILLER_16_197
*777 FILLER_16_208
*778 FILLER_16_22
*779 FILLER_16_220
*780 FILLER_16_232
*781 FILLER_16_244
*782 FILLER_16_253
*783 FILLER_16_265
*784 FILLER_16_277
*785 FILLER_16_29
*786 FILLER_16_291
*787 FILLER_16_3
*788 FILLER_16_37
*789 FILLER_16_65
*790 FILLER_16_69
*791 FILLER_16_73
*792 FILLER_16_82
*793 FILLER_16_85
*794 FILLER_17_107
*795 FILLER_17_111
*796 FILLER_17_113
*797 FILLER_17_124
*798 FILLER_17_132
*799 FILLER_17_140
*800 FILLER_17_153
*801 FILLER_17_160
*802 FILLER_17_169
*803 FILLER_17_180
*804 FILLER_17_193
*805 FILLER_17_206
*806 FILLER_17_218
*807 FILLER_17_225
*808 FILLER_17_237
*809 FILLER_17_249
*810 FILLER_17_25
*811 FILLER_17_261
*812 FILLER_17_273
*813 FILLER_17_279
*814 FILLER_17_281
*815 FILLER_17_293
*816 FILLER_17_3
*817 FILLER_17_34
*818 FILLER_17_54
*819 FILLER_17_57
*820 FILLER_17_63
*821 FILLER_17_69
*822 FILLER_17_93
*823 FILLER_18_110
*824 FILLER_18_117
*825 FILLER_18_138
*826 FILLER_18_141
*827 FILLER_18_153
*828 FILLER_18_166
*829 FILLER_18_174
*830 FILLER_18_184
*831 FILLER_18_194
*832 FILLER_18_197
*833 FILLER_18_208
*834 FILLER_18_220
*835 FILLER_18_232
*836 FILLER_18_244
*837 FILLER_18_253
*838 FILLER_18_26
*839 FILLER_18_265
*840 FILLER_18_277
*841 FILLER_18_289
*842 FILLER_18_29
*843 FILLER_18_297
*844 FILLER_18_3
*845 FILLER_18_34
*846 FILLER_18_38
*847 FILLER_18_55
*848 FILLER_18_75
*849 FILLER_18_82
*850 FILLER_18_85
*851 FILLER_18_9
*852 FILLER_18_90
*853 FILLER_19_110
*854 FILLER_19_113
*855 FILLER_19_118
*856 FILLER_19_125
*857 FILLER_19_137
*858 FILLER_19_145
*859 FILLER_19_153
*860 FILLER_19_166
*861 FILLER_19_169
*862 FILLER_19_184
*863 FILLER_19_188
*864 FILLER_19_195
*865 FILLER_19_208
*866 FILLER_19_215
*867 FILLER_19_223
*868 FILLER_19_225
*869 FILLER_19_237
*870 FILLER_19_249
*871 FILLER_19_25
*872 FILLER_19_261
*873 FILLER_19_273
*874 FILLER_19_279
*875 FILLER_19_281
*876 FILLER_19_29
*877 FILLER_19_293
*878 FILLER_19_3
*879 FILLER_19_33
*880 FILLER_19_53
*881 FILLER_19_57
*882 FILLER_19_75
*883 FILLER_19_84
*884 FILLER_19_92
*885 FILLER_1_105
*886 FILLER_1_111
*887 FILLER_1_113
*888 FILLER_1_125
*889 FILLER_1_137
*890 FILLER_1_149
*891 FILLER_1_15
*892 FILLER_1_161
*893 FILLER_1_167
*894 FILLER_1_169
*895 FILLER_1_181
*896 FILLER_1_19
*897 FILLER_1_193
*898 FILLER_1_205
*899 FILLER_1_217
*900 FILLER_1_223
*901 FILLER_1_225
*902 FILLER_1_23
*903 FILLER_1_237
*904 FILLER_1_249
*905 FILLER_1_261
*906 FILLER_1_273
*907 FILLER_1_279
*908 FILLER_1_281
*909 FILLER_1_293
*910 FILLER_1_3
*911 FILLER_1_39
*912 FILLER_1_47
*913 FILLER_1_54
*914 FILLER_1_57
*915 FILLER_1_69
*916 FILLER_1_81
*917 FILLER_1_93
*918 FILLER_20_101
*919 FILLER_20_118
*920 FILLER_20_122
*921 FILLER_20_127
*922 FILLER_20_138
*923 FILLER_20_141
*924 FILLER_20_156
*925 FILLER_20_163
*926 FILLER_20_174
*927 FILLER_20_185
*928 FILLER_20_193
*929 FILLER_20_197
*930 FILLER_20_208
*931 FILLER_20_223
*932 FILLER_20_235
*933 FILLER_20_247
*934 FILLER_20_25
*935 FILLER_20_251
*936 FILLER_20_253
*937 FILLER_20_265
*938 FILLER_20_277
*939 FILLER_20_289
*940 FILLER_20_29
*941 FILLER_20_297
*942 FILLER_20_3
*943 FILLER_20_35
*944 FILLER_20_59
*945 FILLER_20_79
*946 FILLER_20_83
*947 FILLER_20_85
*948 FILLER_20_93
*949 FILLER_21_100
*950 FILLER_21_110
*951 FILLER_21_113
*952 FILLER_21_131
*953 FILLER_21_141
*954 FILLER_21_152
*955 FILLER_21_160
*956 FILLER_21_166
*957 FILLER_21_169
*958 FILLER_21_17
*959 FILLER_21_192
*960 FILLER_21_205
*961 FILLER_21_218
*962 FILLER_21_225
*963 FILLER_21_237
*964 FILLER_21_249
*965 FILLER_21_261
*966 FILLER_21_273
*967 FILLER_21_279
*968 FILLER_21_281
*969 FILLER_21_293
*970 FILLER_21_3
*971 FILLER_21_39
*972 FILLER_21_43
*973 FILLER_21_47
*974 FILLER_21_54
*975 FILLER_21_57
*976 FILLER_21_62
*977 FILLER_21_69
*978 FILLER_21_9
*979 FILLER_21_93
*980 FILLER_22_120
*981 FILLER_22_131
*982 FILLER_22_138
*983 FILLER_22_141
*984 FILLER_22_147
*985 FILLER_22_153
*986 FILLER_22_163
*987 FILLER_22_172
*988 FILLER_22_179
*989 FILLER_22_183
*990 FILLER_22_193
*991 FILLER_22_197
*992 FILLER_22_214
*993 FILLER_22_226
*994 FILLER_22_238
*995 FILLER_22_250
*996 FILLER_22_253
*997 FILLER_22_26
*998 FILLER_22_265
*999 FILLER_22_277
*1000 FILLER_22_289
*1001 FILLER_22_29
*1002 FILLER_22_297
*1003 FILLER_22_3
*1004 FILLER_22_34
*1005 FILLER_22_45
*1006 FILLER_22_69
*1007 FILLER_22_77
*1008 FILLER_22_82
*1009 FILLER_22_85
*1010 FILLER_22_9
*1011 FILLER_22_91
*1012 FILLER_22_99
*1013 FILLER_23_110
*1014 FILLER_23_113
*1015 FILLER_23_123
*1016 FILLER_23_135
*1017 FILLER_23_148
*1018 FILLER_23_15
*1019 FILLER_23_156
*1020 FILLER_23_166
*1021 FILLER_23_169
*1022 FILLER_23_178
*1023 FILLER_23_185
*1024 FILLER_23_189
*1025 FILLER_23_197
*1026 FILLER_23_210
*1027 FILLER_23_222
*1028 FILLER_23_225
*1029 FILLER_23_237
*1030 FILLER_23_249
*1031 FILLER_23_261
*1032 FILLER_23_273
*1033 FILLER_23_279
*1034 FILLER_23_281
*1035 FILLER_23_293
*1036 FILLER_23_3
*1037 FILLER_23_36
*1038 FILLER_23_47
*1039 FILLER_23_54
*1040 FILLER_23_57
*1041 FILLER_23_75
*1042 FILLER_23_9
*1043 FILLER_23_99
*1044 FILLER_24_115
*1045 FILLER_24_135
*1046 FILLER_24_139
*1047 FILLER_24_141
*1048 FILLER_24_148
*1049 FILLER_24_156
*1050 FILLER_24_167
*1051 FILLER_24_174
*1052 FILLER_24_181
*1053 FILLER_24_192
*1054 FILLER_24_197
*1055 FILLER_24_202
*1056 FILLER_24_209
*1057 FILLER_24_221
*1058 FILLER_24_233
*1059 FILLER_24_245
*1060 FILLER_24_251
*1061 FILLER_24_253
*1062 FILLER_24_26
*1063 FILLER_24_265
*1064 FILLER_24_277
*1065 FILLER_24_289
*1066 FILLER_24_29
*1067 FILLER_24_297
*1068 FILLER_24_3
*1069 FILLER_24_51
*1070 FILLER_24_71
*1071 FILLER_24_82
*1072 FILLER_24_85
*1073 FILLER_24_9
*1074 FILLER_24_91
*1075 FILLER_24_95
*1076 FILLER_25_110
*1077 FILLER_25_113
*1078 FILLER_25_117
*1079 FILLER_25_122
*1080 FILLER_25_126
*1081 FILLER_25_133
*1082 FILLER_25_162
*1083 FILLER_25_169
*1084 FILLER_25_180
*1085 FILLER_25_184
*1086 FILLER_25_194
*1087 FILLER_25_209
*1088 FILLER_25_221
*1089 FILLER_25_225
*1090 FILLER_25_237
*1091 FILLER_25_249
*1092 FILLER_25_261
*1093 FILLER_25_273
*1094 FILLER_25_279
*1095 FILLER_25_281
*1096 FILLER_25_29
*1097 FILLER_25_293
*1098 FILLER_25_3
*1099 FILLER_25_33
*1100 FILLER_25_50
*1101 FILLER_25_57
*1102 FILLER_25_75
*1103 FILLER_25_85
*1104 FILLER_25_9
*1105 FILLER_25_93
*1106 FILLER_26_121
*1107 FILLER_26_125
*1108 FILLER_26_132
*1109 FILLER_26_141
*1110 FILLER_26_152
*1111 FILLER_26_160
*1112 FILLER_26_166
*1113 FILLER_26_174
*1114 FILLER_26_181
*1115 FILLER_26_192
*1116 FILLER_26_197
*1117 FILLER_26_212
*1118 FILLER_26_225
*1119 FILLER_26_237
*1120 FILLER_26_249
*1121 FILLER_26_25
*1122 FILLER_26_253
*1123 FILLER_26_265
*1124 FILLER_26_277
*1125 FILLER_26_289
*1126 FILLER_26_29
*1127 FILLER_26_297
*1128 FILLER_26_3
*1129 FILLER_26_38
*1130 FILLER_26_44
*1131 FILLER_26_65
*1132 FILLER_26_71
*1133 FILLER_26_75
*1134 FILLER_26_82
*1135 FILLER_26_85
*1136 FILLER_26_90
*1137 FILLER_26_97
*1138 FILLER_27_108
*1139 FILLER_27_113
*1140 FILLER_27_120
*1141 FILLER_27_128
*1142 FILLER_27_139
*1143 FILLER_27_147
*1144 FILLER_27_15
*1145 FILLER_27_157
*1146 FILLER_27_166
*1147 FILLER_27_169
*1148 FILLER_27_181
*1149 FILLER_27_194
*1150 FILLER_27_207
*1151 FILLER_27_220
*1152 FILLER_27_225
*1153 FILLER_27_237
*1154 FILLER_27_249
*1155 FILLER_27_261
*1156 FILLER_27_273
*1157 FILLER_27_279
*1158 FILLER_27_281
*1159 FILLER_27_295
*1160 FILLER_27_3
*1161 FILLER_27_36
*1162 FILLER_27_47
*1163 FILLER_27_54
*1164 FILLER_27_57
*1165 FILLER_27_66
*1166 FILLER_27_86
*1167 FILLER_27_9
*1168 FILLER_28_103
*1169 FILLER_28_123
*1170 FILLER_28_135
*1171 FILLER_28_139
*1172 FILLER_28_141
*1173 FILLER_28_147
*1174 FILLER_28_155
*1175 FILLER_28_162
*1176 FILLER_28_169
*1177 FILLER_28_177
*1178 FILLER_28_182
*1179 FILLER_28_189
*1180 FILLER_28_195
*1181 FILLER_28_197
*1182 FILLER_28_202
*1183 FILLER_28_217
*1184 FILLER_28_229
*1185 FILLER_28_241
*1186 FILLER_28_249
*1187 FILLER_28_253
*1188 FILLER_28_26
*1189 FILLER_28_265
*1190 FILLER_28_277
*1191 FILLER_28_289
*1192 FILLER_28_29
*1193 FILLER_28_297
*1194 FILLER_28_3
*1195 FILLER_28_33
*1196 FILLER_28_50
*1197 FILLER_28_54
*1198 FILLER_28_58
*1199 FILLER_28_62
*1200 FILLER_28_82
*1201 FILLER_28_85
*1202 FILLER_28_9
*1203 FILLER_29_10
*1204 FILLER_29_103
*1205 FILLER_29_110
*1206 FILLER_29_113
*1207 FILLER_29_117
*1208 FILLER_29_127
*1209 FILLER_29_137
*1210 FILLER_29_145
*1211 FILLER_29_155
*1212 FILLER_29_162
*1213 FILLER_29_169
*1214 FILLER_29_192
*1215 FILLER_29_209
*1216 FILLER_29_221
*1217 FILLER_29_225
*1218 FILLER_29_237
*1219 FILLER_29_249
*1220 FILLER_29_261
*1221 FILLER_29_273
*1222 FILLER_29_279
*1223 FILLER_29_281
*1224 FILLER_29_293
*1225 FILLER_29_3
*1226 FILLER_29_30
*1227 FILLER_29_54
*1228 FILLER_29_57
*1229 FILLER_29_66
*1230 FILLER_29_72
*1231 FILLER_29_93
*1232 FILLER_29_99
*1233 FILLER_2_109
*1234 FILLER_2_121
*1235 FILLER_2_133
*1236 FILLER_2_139
*1237 FILLER_2_141
*1238 FILLER_2_15
*1239 FILLER_2_153
*1240 FILLER_2_165
*1241 FILLER_2_177
*1242 FILLER_2_189
*1243 FILLER_2_195
*1244 FILLER_2_197
*1245 FILLER_2_209
*1246 FILLER_2_221
*1247 FILLER_2_233
*1248 FILLER_2_245
*1249 FILLER_2_251
*1250 FILLER_2_253
*1251 FILLER_2_265
*1252 FILLER_2_27
*1253 FILLER_2_277
*1254 FILLER_2_289
*1255 FILLER_2_29
*1256 FILLER_2_297
*1257 FILLER_2_3
*1258 FILLER_2_38
*1259 FILLER_2_50
*1260 FILLER_2_62
*1261 FILLER_2_81
*1262 FILLER_2_85
*1263 FILLER_2_97
*1264 FILLER_30_110
*1265 FILLER_30_122
*1266 FILLER_30_138
*1267 FILLER_30_141
*1268 FILLER_30_149
*1269 FILLER_30_162
*1270 FILLER_30_191
*1271 FILLER_30_195
*1272 FILLER_30_197
*1273 FILLER_30_208
*1274 FILLER_30_220
*1275 FILLER_30_232
*1276 FILLER_30_244
*1277 FILLER_30_253
*1278 FILLER_30_26
*1279 FILLER_30_265
*1280 FILLER_30_277
*1281 FILLER_30_289
*1282 FILLER_30_29
*1283 FILLER_30_297
*1284 FILLER_30_3
*1285 FILLER_30_40
*1286 FILLER_30_44
*1287 FILLER_30_65
*1288 FILLER_30_72
*1289 FILLER_30_78
*1290 FILLER_30_82
*1291 FILLER_30_85
*1292 FILLER_30_90
*1293 FILLER_31_100
*1294 FILLER_31_106
*1295 FILLER_31_110
*1296 FILLER_31_113
*1297 FILLER_31_122
*1298 FILLER_31_132
*1299 FILLER_31_145
*1300 FILLER_31_149
*1301 FILLER_31_153
*1302 FILLER_31_165
*1303 FILLER_31_169
*1304 FILLER_31_190
*1305 FILLER_31_203
*1306 FILLER_31_21
*1307 FILLER_31_216
*1308 FILLER_31_225
*1309 FILLER_31_237
*1310 FILLER_31_249
*1311 FILLER_31_261
*1312 FILLER_31_273
*1313 FILLER_31_279
*1314 FILLER_31_281
*1315 FILLER_31_293
*1316 FILLER_31_3
*1317 FILLER_31_45
*1318 FILLER_31_52
*1319 FILLER_31_57
*1320 FILLER_31_63
*1321 FILLER_31_67
*1322 FILLER_31_74
*1323 FILLER_32_108
*1324 FILLER_32_115
*1325 FILLER_32_126
*1326 FILLER_32_135
*1327 FILLER_32_139
*1328 FILLER_32_141
*1329 FILLER_32_146
*1330 FILLER_32_153
*1331 FILLER_32_160
*1332 FILLER_32_173
*1333 FILLER_32_185
*1334 FILLER_32_193
*1335 FILLER_32_197
*1336 FILLER_32_210
*1337 FILLER_32_222
*1338 FILLER_32_234
*1339 FILLER_32_246
*1340 FILLER_32_253
*1341 FILLER_32_26
*1342 FILLER_32_265
*1343 FILLER_32_277
*1344 FILLER_32_289
*1345 FILLER_32_29
*1346 FILLER_32_297
*1347 FILLER_32_3
*1348 FILLER_32_34
*1349 FILLER_32_54
*1350 FILLER_32_62
*1351 FILLER_32_80
*1352 FILLER_32_85
*1353 FILLER_32_9
*1354 FILLER_32_91
*1355 FILLER_33_100
*1356 FILLER_33_107
*1357 FILLER_33_111
*1358 FILLER_33_113
*1359 FILLER_33_118
*1360 FILLER_33_12
*1361 FILLER_33_124
*1362 FILLER_33_134
*1363 FILLER_33_142
*1364 FILLER_33_150
*1365 FILLER_33_163
*1366 FILLER_33_167
*1367 FILLER_33_169
*1368 FILLER_33_173
*1369 FILLER_33_177
*1370 FILLER_33_185
*1371 FILLER_33_196
*1372 FILLER_33_202
*1373 FILLER_33_212
*1374 FILLER_33_225
*1375 FILLER_33_237
*1376 FILLER_33_249
*1377 FILLER_33_261
*1378 FILLER_33_273
*1379 FILLER_33_279
*1380 FILLER_33_281
*1381 FILLER_33_293
*1382 FILLER_33_3
*1383 FILLER_33_36
*1384 FILLER_33_43
*1385 FILLER_33_54
*1386 FILLER_33_57
*1387 FILLER_33_63
*1388 FILLER_33_80
*1389 FILLER_34_108
*1390 FILLER_34_115
*1391 FILLER_34_126
*1392 FILLER_34_138
*1393 FILLER_34_141
*1394 FILLER_34_152
*1395 FILLER_34_160
*1396 FILLER_34_166
*1397 FILLER_34_188
*1398 FILLER_34_197
*1399 FILLER_34_209
*1400 FILLER_34_221
*1401 FILLER_34_233
*1402 FILLER_34_245
*1403 FILLER_34_251
*1404 FILLER_34_253
*1405 FILLER_34_26
*1406 FILLER_34_265
*1407 FILLER_34_277
*1408 FILLER_34_289
*1409 FILLER_34_29
*1410 FILLER_34_297
*1411 FILLER_34_3
*1412 FILLER_34_40
*1413 FILLER_34_48
*1414 FILLER_34_66
*1415 FILLER_34_73
*1416 FILLER_34_81
*1417 FILLER_34_85
*1418 FILLER_34_9
*1419 FILLER_34_96
*1420 FILLER_35_103
*1421 FILLER_35_110
*1422 FILLER_35_113
*1423 FILLER_35_12
*1424 FILLER_35_122
*1425 FILLER_35_128
*1426 FILLER_35_132
*1427 FILLER_35_140
*1428 FILLER_35_151
*1429 FILLER_35_161
*1430 FILLER_35_167
*1431 FILLER_35_169
*1432 FILLER_35_175
*1433 FILLER_35_187
*1434 FILLER_35_199
*1435 FILLER_35_211
*1436 FILLER_35_223
*1437 FILLER_35_225
*1438 FILLER_35_237
*1439 FILLER_35_249
*1440 FILLER_35_261
*1441 FILLER_35_273
*1442 FILLER_35_279
*1443 FILLER_35_281
*1444 FILLER_35_293
*1445 FILLER_35_3
*1446 FILLER_35_36
*1447 FILLER_35_43
*1448 FILLER_35_50
*1449 FILLER_35_57
*1450 FILLER_35_75
*1451 FILLER_35_83
*1452 FILLER_35_88
*1453 FILLER_35_95
*1454 FILLER_35_99
*1455 FILLER_36_103
*1456 FILLER_36_115
*1457 FILLER_36_124
*1458 FILLER_36_132
*1459 FILLER_36_137
*1460 FILLER_36_141
*1461 FILLER_36_147
*1462 FILLER_36_160
*1463 FILLER_36_167
*1464 FILLER_36_176
*1465 FILLER_36_188
*1466 FILLER_36_197
*1467 FILLER_36_209
*1468 FILLER_36_221
*1469 FILLER_36_233
*1470 FILLER_36_245
*1471 FILLER_36_25
*1472 FILLER_36_251
*1473 FILLER_36_253
*1474 FILLER_36_265
*1475 FILLER_36_277
*1476 FILLER_36_289
*1477 FILLER_36_29
*1478 FILLER_36_297
*1479 FILLER_36_3
*1480 FILLER_36_48
*1481 FILLER_36_55
*1482 FILLER_36_62
*1483 FILLER_36_82
*1484 FILLER_36_85
*1485 FILLER_37_105
*1486 FILLER_37_109
*1487 FILLER_37_113
*1488 FILLER_37_124
*1489 FILLER_37_131
*1490 FILLER_37_144
*1491 FILLER_37_157
*1492 FILLER_37_164
*1493 FILLER_37_169
*1494 FILLER_37_180
*1495 FILLER_37_192
*1496 FILLER_37_204
*1497 FILLER_37_216
*1498 FILLER_37_225
*1499 FILLER_37_237
*1500 FILLER_37_249
*1501 FILLER_37_261
*1502 FILLER_37_273
*1503 FILLER_37_279
*1504 FILLER_37_281
*1505 FILLER_37_293
*1506 FILLER_37_3
*1507 FILLER_37_33
*1508 FILLER_37_53
*1509 FILLER_37_57
*1510 FILLER_37_77
*1511 FILLER_37_8
*1512 FILLER_37_97
*1513 FILLER_38_107
*1514 FILLER_38_115
*1515 FILLER_38_125
*1516 FILLER_38_136
*1517 FILLER_38_141
*1518 FILLER_38_151
*1519 FILLER_38_163
*1520 FILLER_38_175
*1521 FILLER_38_187
*1522 FILLER_38_195
*1523 FILLER_38_197
*1524 FILLER_38_209
*1525 FILLER_38_221
*1526 FILLER_38_233
*1527 FILLER_38_245
*1528 FILLER_38_251
*1529 FILLER_38_253
*1530 FILLER_38_26
*1531 FILLER_38_265
*1532 FILLER_38_277
*1533 FILLER_38_289
*1534 FILLER_38_29
*1535 FILLER_38_297
*1536 FILLER_38_3
*1537 FILLER_38_35
*1538 FILLER_38_52
*1539 FILLER_38_58
*1540 FILLER_38_62
*1541 FILLER_38_82
*1542 FILLER_38_85
*1543 FILLER_38_91
*1544 FILLER_38_95
*1545 FILLER_39_106
*1546 FILLER_39_113
*1547 FILLER_39_118
*1548 FILLER_39_122
*1549 FILLER_39_126
*1550 FILLER_39_134
*1551 FILLER_39_14
*1552 FILLER_39_140
*1553 FILLER_39_153
*1554 FILLER_39_166
*1555 FILLER_39_169
*1556 FILLER_39_181
*1557 FILLER_39_193
*1558 FILLER_39_205
*1559 FILLER_39_217
*1560 FILLER_39_223
*1561 FILLER_39_225
*1562 FILLER_39_237
*1563 FILLER_39_249
*1564 FILLER_39_261
*1565 FILLER_39_273
*1566 FILLER_39_279
*1567 FILLER_39_281
*1568 FILLER_39_293
*1569 FILLER_39_3
*1570 FILLER_39_37
*1571 FILLER_39_44
*1572 FILLER_39_51
*1573 FILLER_39_55
*1574 FILLER_39_57
*1575 FILLER_39_64
*1576 FILLER_39_71
*1577 FILLER_39_95
*1578 FILLER_3_105
*1579 FILLER_3_111
*1580 FILLER_3_113
*1581 FILLER_3_125
*1582 FILLER_3_137
*1583 FILLER_3_149
*1584 FILLER_3_15
*1585 FILLER_3_161
*1586 FILLER_3_167
*1587 FILLER_3_169
*1588 FILLER_3_181
*1589 FILLER_3_193
*1590 FILLER_3_205
*1591 FILLER_3_217
*1592 FILLER_3_223
*1593 FILLER_3_225
*1594 FILLER_3_237
*1595 FILLER_3_249
*1596 FILLER_3_261
*1597 FILLER_3_27
*1598 FILLER_3_273
*1599 FILLER_3_279
*1600 FILLER_3_281
*1601 FILLER_3_293
*1602 FILLER_3_3
*1603 FILLER_3_39
*1604 FILLER_3_51
*1605 FILLER_3_55
*1606 FILLER_3_57
*1607 FILLER_3_69
*1608 FILLER_3_81
*1609 FILLER_3_93
*1610 FILLER_40_103
*1611 FILLER_40_111
*1612 FILLER_40_119
*1613 FILLER_40_126
*1614 FILLER_40_133
*1615 FILLER_40_139
*1616 FILLER_40_141
*1617 FILLER_40_152
*1618 FILLER_40_159
*1619 FILLER_40_171
*1620 FILLER_40_183
*1621 FILLER_40_195
*1622 FILLER_40_197
*1623 FILLER_40_209
*1624 FILLER_40_221
*1625 FILLER_40_233
*1626 FILLER_40_245
*1627 FILLER_40_251
*1628 FILLER_40_253
*1629 FILLER_40_26
*1630 FILLER_40_265
*1631 FILLER_40_277
*1632 FILLER_40_289
*1633 FILLER_40_29
*1634 FILLER_40_297
*1635 FILLER_40_3
*1636 FILLER_40_35
*1637 FILLER_40_56
*1638 FILLER_40_64
*1639 FILLER_40_81
*1640 FILLER_40_85
*1641 FILLER_40_9
*1642 FILLER_41_101
*1643 FILLER_41_108
*1644 FILLER_41_113
*1645 FILLER_41_12
*1646 FILLER_41_125
*1647 FILLER_41_131
*1648 FILLER_41_139
*1649 FILLER_41_151
*1650 FILLER_41_163
*1651 FILLER_41_167
*1652 FILLER_41_169
*1653 FILLER_41_178
*1654 FILLER_41_190
*1655 FILLER_41_202
*1656 FILLER_41_214
*1657 FILLER_41_222
*1658 FILLER_41_225
*1659 FILLER_41_237
*1660 FILLER_41_249
*1661 FILLER_41_261
*1662 FILLER_41_273
*1663 FILLER_41_279
*1664 FILLER_41_281
*1665 FILLER_41_293
*1666 FILLER_41_3
*1667 FILLER_41_36
*1668 FILLER_41_43
*1669 FILLER_41_50
*1670 FILLER_41_57
*1671 FILLER_41_62
*1672 FILLER_41_69
*1673 FILLER_41_93
*1674 FILLER_42_103
*1675 FILLER_42_116
*1676 FILLER_42_122
*1677 FILLER_42_126
*1678 FILLER_42_138
*1679 FILLER_42_14
*1680 FILLER_42_141
*1681 FILLER_42_149
*1682 FILLER_42_160
*1683 FILLER_42_172