*SPEF "ieee 1481-1999"
*DESIGN "AidanMedcalf_pid_controller"
*DATE "11:11:11 Fri 11 11, 1111"
*VENDOR "OpenRCX"
*PROGRAM "Parallel Extraction"
*VERSION "1.0"
*DESIGN_FLOW "NAME_SCOPE LOCAL" "PIN_CAP NONE"
*DIVIDER /
*DELIMITER :
*BUS_DELIMITER []
*T_UNIT 1 NS
*C_UNIT 1 PF
*R_UNIT 1 OHM
*L_UNIT 1 HENRY

*NAME_MAP
*1 io_in[0]
*2 io_in[1]
*3 io_in[2]
*4 io_in[3]
*5 io_in[4]
*6 io_in[5]
*7 io_in[6]
*8 io_in[7]
*9 io_out[0]
*10 io_out[1]
*11 io_out[2]
*12 io_out[3]
*13 io_out[4]
*14 net6
*15 net7
*16 net8
*19 _0000_
*20 _0001_
*21 _0002_
*22 _0003_
*23 _0004_
*24 _0005_
*25 _0006_
*26 _0007_
*27 _0008_
*28 _0009_
*29 _0010_
*30 _0011_
*31 _0012_
*32 _0013_
*33 _0014_
*34 _0015_
*35 _0016_
*36 _0017_
*37 _0018_
*38 _0019_
*39 _0020_
*40 _0021_
*41 _0022_
*42 _0023_
*43 _0024_
*44 _0025_
*45 _0026_
*46 _0027_
*47 _0028_
*48 _0029_
*49 _0030_
*50 _0031_
*51 _0032_
*52 _0033_
*53 _0034_
*54 _0035_
*55 _0036_
*56 _0037_
*57 _0038_
*58 _0039_
*59 _0040_
*60 _0041_
*61 _0042_
*62 _0043_
*63 _0044_
*64 _0045_
*65 _0046_
*66 _0047_
*67 _0048_
*68 _0049_
*69 _0050_
*70 _0051_
*71 _0052_
*72 _0053_
*73 _0054_
*74 _0055_
*75 _0056_
*76 _0057_
*77 _0058_
*78 _0059_
*79 _0060_
*80 _0061_
*81 _0062_
*82 _0063_
*83 _0064_
*84 _0065_
*85 _0066_
*86 _0067_
*87 _0068_
*88 _0069_
*89 _0070_
*90 _0071_
*91 _0072_
*92 _0073_
*93 _0074_
*94 _0075_
*95 _0076_
*96 _0077_
*97 _0078_
*98 _0079_
*99 _0080_
*100 _0081_
*101 _0082_
*102 _0083_
*103 _0084_
*104 _0085_
*105 _0086_
*106 _0087_
*107 _0088_
*108 _0089_
*109 _0090_
*110 _0091_
*111 _0092_
*112 _0093_
*113 _0094_
*114 _0095_
*115 _0096_
*116 _0097_
*117 _0098_
*118 _0099_
*119 _0100_
*120 _0101_
*121 _0102_
*122 _0103_
*123 _0104_
*124 _0105_
*125 _0106_
*126 _0107_
*127 _0108_
*128 _0109_
*129 _0110_
*130 _0111_
*131 _0112_
*132 _0113_
*133 _0114_
*134 _0115_
*135 _0116_
*136 _0117_
*137 _0118_
*138 _0119_
*139 _0120_
*140 _0121_
*141 _0122_
*142 _0123_
*143 _0124_
*144 _0125_
*145 _0126_
*146 _0127_
*147 _0128_
*148 _0129_
*149 _0130_
*150 _0131_
*151 _0132_
*152 _0133_
*153 _0134_
*154 _0135_
*155 _0136_
*156 _0137_
*157 _0138_
*158 _0139_
*159 _0140_
*160 _0141_
*161 _0142_
*162 _0143_
*163 _0144_
*164 _0145_
*165 _0146_
*166 _0147_
*167 _0148_
*168 _0149_
*169 _0150_
*170 _0151_
*171 _0152_
*172 _0153_
*173 _0154_
*174 _0155_
*175 _0156_
*176 _0157_
*177 _0158_
*178 _0159_
*179 _0160_
*180 _0161_
*181 _0162_
*182 _0163_
*183 _0164_
*184 _0165_
*185 _0166_
*186 _0167_
*187 _0168_
*188 _0169_
*189 _0170_
*190 _0171_
*191 _0172_
*192 _0173_
*193 _0174_
*194 _0175_
*195 _0176_
*196 _0177_
*197 _0178_
*198 _0179_
*199 _0180_
*200 _0181_
*201 _0182_
*202 _0183_
*203 _0184_
*204 _0185_
*205 _0186_
*206 _0187_
*207 _0188_
*208 _0189_
*209 _0190_
*210 _0191_
*211 _0192_
*212 _0193_
*213 _0194_
*214 _0195_
*215 _0196_
*216 _0197_
*217 _0198_
*218 _0199_
*219 _0200_
*220 _0201_
*221 _0202_
*222 _0203_
*223 _0204_
*224 _0205_
*225 _0206_
*226 _0207_
*227 _0208_
*228 _0209_
*229 _0210_
*230 _0211_
*231 _0212_
*232 _0213_
*233 _0214_
*234 _0215_
*235 _0216_
*236 _0217_
*237 _0218_
*238 _0219_
*239 _0220_
*240 _0221_
*241 _0222_
*242 _0223_
*243 _0224_
*244 _0225_
*245 _0226_
*246 _0227_
*247 _0228_
*248 _0229_
*249 _0230_
*250 _0231_
*251 _0232_
*252 _0233_
*253 _0234_
*254 _0235_
*255 _0236_
*256 _0237_
*257 _0238_
*258 _0239_
*259 _0240_
*260 _0241_
*261 _0242_
*262 _0243_
*263 _0244_
*264 _0245_
*265 _0246_
*266 _0247_
*267 _0248_
*268 _0249_
*269 _0250_
*270 _0251_
*271 _0252_
*272 _0253_
*273 _0254_
*274 _0255_
*275 _0256_
*276 _0257_
*277 _0258_
*278 _0259_
*279 _0260_
*280 _0261_
*281 _0262_
*282 _0263_
*283 _0264_
*284 _0265_
*285 _0266_
*286 _0267_
*287 _0268_
*288 _0269_
*289 _0270_
*290 _0271_
*291 _0272_
*292 _0273_
*293 _0274_
*294 _0275_
*295 _0276_
*296 _0277_
*297 _0278_
*298 _0279_
*299 _0280_
*300 _0281_
*301 _0282_
*302 _0283_
*303 _0284_
*304 _0285_
*305 _0286_
*306 _0287_
*307 _0288_
*308 _0289_
*309 _0290_
*310 _0291_
*311 _0292_
*312 _0293_
*313 _0294_
*314 _0295_
*315 _0296_
*316 _0297_
*317 _0298_
*318 _0299_
*319 _0300_
*320 _0301_
*321 _0302_
*322 _0303_
*323 _0304_
*324 _0305_
*325 _0306_
*326 _0307_
*327 _0308_
*328 _0309_
*329 _0310_
*330 _0311_
*331 _0312_
*332 _0313_
*333 _0314_
*334 _0315_
*335 _0316_
*336 _0317_
*337 _0318_
*338 _0319_
*339 _0320_
*340 _0321_
*341 _0322_
*342 _0323_
*343 _0324_
*344 _0325_
*345 _0326_
*346 _0327_
*347 _0328_
*348 _0329_
*349 _0330_
*350 _0331_
*351 _0332_
*352 _0333_
*353 _0334_
*354 _0335_
*355 _0336_
*356 _0337_
*357 _0338_
*358 _0339_
*359 _0340_
*360 _0341_
*361 _0342_
*362 _0343_
*363 _0344_
*364 _0345_
*365 _0346_
*366 _0347_
*367 _0348_
*368 _0349_
*369 _0350_
*370 _0351_
*371 _0352_
*372 _0353_
*373 _0354_
*374 _0355_
*375 _0356_
*376 _0357_
*377 _0358_
*378 _0359_
*379 _0360_
*380 _0361_
*381 _0362_
*382 _0363_
*383 _0364_
*384 _0365_
*385 _0366_
*386 _0367_
*387 _0368_
*388 _0369_
*389 _0370_
*390 _0371_
*391 _0372_
*392 _0373_
*393 _0374_
*394 _0375_
*395 _0376_
*396 _0377_
*397 _0378_
*398 _0379_
*399 _0380_
*400 _0381_
*401 _0382_
*402 _0383_
*403 _0384_
*404 _0385_
*405 _0386_
*406 _0387_
*407 _0388_
*408 _0389_
*409 _0390_
*410 _0391_
*411 _0392_
*412 _0393_
*413 _0394_
*414 _0395_
*415 _0396_
*416 _0397_
*417 _0398_
*418 _0399_
*419 _0400_
*420 _0401_
*421 _0402_
*422 _0403_
*423 _0404_
*424 _0405_
*425 _0406_
*426 _0407_
*427 _0408_
*428 _0409_
*429 _0410_
*430 _0411_
*431 _0412_
*432 _0413_
*433 _0414_
*434 _0415_
*435 _0416_
*436 _0417_
*437 _0418_
*438 _0419_
*439 _0420_
*440 _0421_
*441 _0422_
*442 _0423_
*443 _0424_
*444 _0425_
*445 _0426_
*446 _0427_
*447 _0428_
*448 _0429_
*449 _0430_
*450 _0431_
*451 _0432_
*452 _0433_
*453 _0434_
*454 _0435_
*455 _0436_
*456 _0437_
*457 _0438_
*458 _0439_
*459 _0440_
*460 _0441_
*461 _0442_
*462 _0443_
*463 _0444_
*464 _0445_
*465 _0446_
*466 _0447_
*467 _0448_
*468 _0449_
*469 _0450_
*470 _0451_
*471 _0452_
*472 _0453_
*473 _0454_
*474 _0455_
*475 _0456_
*476 _0457_
*477 _0458_
*478 _0459_
*479 _0460_
*480 _0461_
*481 _0462_
*482 _0463_
*483 _0464_
*484 _0465_
*485 _0466_
*486 _0467_
*487 _0468_
*488 _0469_
*489 _0470_
*490 _0471_
*491 _0472_
*492 _0473_
*493 _0474_
*494 _0475_
*495 _0476_
*496 _0477_
*497 _0478_
*498 _0479_
*499 _0480_
*500 _0481_
*501 _0482_
*502 _0483_
*503 _0484_
*504 _0485_
*505 _0486_
*506 _0487_
*507 _0488_
*508 _0489_
*509 _0490_
*510 _0491_
*511 _0492_
*512 _0493_
*513 _0494_
*514 _0495_
*515 _0496_
*516 _0497_
*517 _0498_
*518 _0499_
*519 _0500_
*520 _0501_
*521 _0502_
*522 _0503_
*523 _0504_
*524 _0505_
*525 _0506_
*526 _0507_
*527 _0508_
*528 _0509_
*529 _0510_
*530 _0511_
*531 _0512_
*532 _0513_
*533 _0514_
*534 _0515_
*535 _0516_
*536 _0517_
*537 _0518_
*538 _0519_
*539 _0520_
*540 _0521_
*541 _0522_
*542 _0523_
*543 _0524_
*544 _0525_
*545 _0526_
*546 _0527_
*547 _0528_
*548 _0529_
*549 _0530_
*550 _0531_
*551 _0532_
*552 _0533_
*553 _0534_
*554 _0535_
*555 _0536_
*556 _0537_
*557 _0538_
*558 _0539_
*559 _0540_
*560 _0541_
*561 _0542_
*562 _0543_
*563 _0544_
*564 _0545_
*565 _0546_
*566 _0547_
*567 _0548_
*568 _0549_
*569 _0550_
*570 _0551_
*571 _0552_
*572 _0553_
*573 _0554_
*574 _0555_
*575 _0556_
*576 _0557_
*577 _0558_
*578 _0559_
*579 _0560_
*580 _0561_
*581 _0562_
*582 _0563_
*583 _0564_
*584 _0565_
*585 _0566_
*586 _0567_
*587 _0568_
*588 _0569_
*589 _0570_
*590 _0571_
*591 _0572_
*592 _0573_
*593 _0574_
*594 _0575_
*595 _0576_
*596 _0577_
*597 _0578_
*598 _0579_
*599 _0580_
*600 _0581_
*601 _0582_
*602 _0583_
*603 _0584_
*604 _0585_
*605 _0586_
*606 _0587_
*607 _0588_
*608 _0589_
*609 _0590_
*610 _0591_
*611 _0592_
*612 _0593_
*613 _0594_
*614 _0595_
*615 _0596_
*616 _0597_
*617 _0598_
*618 _0599_
*619 _0600_
*620 _0601_
*621 _0602_
*622 _0603_
*623 _0604_
*624 _0605_
*625 _0606_
*626 _0607_
*627 _0608_
*628 _0609_
*629 _0610_
*630 _0611_
*631 _0612_
*632 _0613_
*633 _0614_
*634 _0615_
*635 _0616_
*636 _0617_
*637 _0618_
*638 _0619_
*639 _0620_
*640 _0621_
*641 _0622_
*642 _0623_
*643 _0624_
*644 _0625_
*645 _0626_
*646 _0627_
*647 _0628_
*648 _0629_
*649 _0630_
*650 _0631_
*651 _0632_
*652 _0633_
*653 _0634_
*654 _0635_
*655 _0636_
*656 _0637_
*657 _0638_
*658 _0639_
*659 _0640_
*660 _0641_
*661 _0642_
*662 _0643_
*663 _0644_
*664 _0645_
*665 _0646_
*666 _0647_
*667 _0648_
*668 _0649_
*669 _0650_
*670 _0651_
*671 _0652_
*672 _0653_
*673 _0654_
*674 _0655_
*675 _0656_
*676 _0657_
*677 _0658_
*678 _0659_
*679 _0660_
*680 _0661_
*681 _0662_
*682 _0663_
*683 _0664_
*684 _0665_
*685 _0666_
*686 _0667_
*687 _0668_
*688 _0669_
*689 _0670_
*690 _0671_
*691 _0672_
*692 _0673_
*693 _0674_
*694 _0675_
*695 _0676_
*696 _0677_
*697 _0678_
*698 _0679_
*699 _0680_
*700 _0681_
*701 _0682_
*702 _0683_
*703 _0684_
*704 _0685_
*705 _0686_
*706 _0687_
*707 _0688_
*708 _0689_
*709 _0690_
*710 _0691_
*711 _0692_
*712 _0693_
*713 _0694_
*714 _0695_
*715 _0696_
*716 _0697_
*717 _0698_
*718 _0699_
*719 _0700_
*720 _0701_
*721 _0702_
*722 _0703_
*723 _0704_
*724 _0705_
*725 _0706_
*726 _0707_
*727 _0708_
*728 _0709_
*729 _0710_
*730 _0711_
*731 _0712_
*732 _0713_
*733 _0714_
*734 _0715_
*735 _0716_
*736 _0717_
*737 _0718_
*738 _0719_
*739 _0720_
*740 _0721_
*741 _0722_
*742 _0723_
*743 _0724_
*744 _0725_
*745 _0726_
*746 _0727_
*747 _0728_
*748 _0729_
*749 _0730_
*750 _0731_
*751 _0732_
*752 _0733_
*753 _0734_
*754 _0735_
*755 _0736_
*756 _0737_
*757 _0738_
*758 _0739_
*759 _0740_
*760 _0741_
*761 _0742_
*762 _0743_
*763 _0744_
*764 _0745_
*765 _0746_
*766 _0747_
*767 _0748_
*768 _0749_
*769 _0750_
*770 _0751_
*771 _0752_
*772 _0753_
*773 _0754_
*774 _0755_
*775 _0756_
*776 _0757_
*777 _0758_
*778 _0759_
*779 _0760_
*780 _0761_
*781 _0762_
*782 _0763_
*783 _0764_
*784 _0765_
*785 _0766_
*786 _0767_
*787 _0768_
*788 _0769_
*789 _0770_
*790 _0771_
*791 _0772_
*792 _0773_
*793 _0774_
*794 _0775_
*795 _0776_
*796 _0777_
*797 _0778_
*798 _0779_
*799 _0780_
*800 _0781_
*801 _0782_
*802 _0783_
*803 _0784_
*804 _0785_
*805 _0786_
*806 _0787_
*807 _0788_
*808 _0789_
*809 _0790_
*810 _0791_
*811 _0792_
*812 _0793_
*813 _0794_
*814 _0795_
*815 _0796_
*816 _0797_
*817 _0798_
*818 _0799_
*819 _0800_
*820 _0801_
*821 _0802_
*822 _0803_
*823 _0804_
*824 _0805_
*825 _0806_
*826 _0807_
*827 _0808_
*828 _0809_
*829 _0810_
*830 _0811_
*831 _0812_
*832 _0813_
*833 _0814_
*834 _0815_
*835 _0816_
*836 _0817_
*837 _0818_
*838 _0819_
*839 _0820_
*840 _0821_
*841 _0822_
*842 _0823_
*843 _0824_
*844 _0825_
*845 _0826_
*846 _0827_
*847 _0828_
*848 _0829_
*849 _0830_
*850 _0831_
*851 _0832_
*852 _0833_
*853 _0834_
*854 _0835_
*855 _0836_
*856 _0837_
*857 _0838_
*858 _0839_
*859 _0840_
*860 _0841_
*861 _0842_
*862 _0843_
*863 _0844_
*864 _0845_
*865 _0846_
*866 _0847_
*867 _0848_
*868 _0849_
*869 _0850_
*870 _0851_
*871 _0852_
*872 _0853_
*873 _0854_
*874 _0855_
*875 _0856_
*876 _0857_
*877 _0858_
*878 _0859_
*879 _0860_
*880 _0861_
*881 _0862_
*882 _0863_
*883 _0864_
*884 _0865_
*885 _0866_
*886 _0867_
*887 _0868_
*888 _0869_
*889 _0870_
*890 _0871_
*891 _0872_
*892 _0873_
*893 _0874_
*894 _0875_
*895 _0876_
*896 _0877_
*897 _0878_
*898 _0879_
*899 _0880_
*900 _0881_
*901 _0882_
*902 _0883_
*903 _0884_
*904 _0885_
*905 _0886_
*906 _0887_
*907 _0888_
*908 _0889_
*909 _0890_
*910 _0891_
*911 _0892_
*912 _0893_
*913 _0894_
*914 _0895_
*915 _0896_
*916 _0897_
*917 _0898_
*918 _0899_
*919 _0900_
*920 _0901_
*921 _0902_
*922 _0903_
*923 _0904_
*924 _0905_
*925 _0906_
*926 _0907_
*927 _0908_
*928 _0909_
*929 _0910_
*930 _0911_
*931 _0912_
*932 _0913_
*933 _0914_
*934 _0915_
*935 _0916_
*936 _0917_
*937 _0918_
*938 _0919_
*939 _0920_
*940 _0921_
*941 _0922_
*942 _0923_
*943 _0924_
*944 _0925_
*945 _0926_
*946 _0927_
*947 _0928_
*948 _0929_
*949 _0930_
*950 _0931_
*951 _0932_
*952 _0933_
*953 _0934_
*954 _0935_
*955 _0936_
*956 _0937_
*957 _0938_
*958 _0939_
*959 _0940_
*960 _0941_
*961 _0942_
*962 _0943_
*963 _0944_
*964 _0945_
*965 _0946_
*966 _0947_
*967 _0948_
*968 _0949_
*969 _0950_
*970 _0951_
*971 _0952_
*972 _0953_
*973 _0954_
*974 _0955_
*975 _0956_
*976 _0957_
*977 _0958_
*978 _0959_
*979 _0960_
*980 _0961_
*981 _0962_
*982 _0963_
*983 cfg_spi\.buffer\[0\]
*984 cfg_spi\.buffer\[10\]
*985 cfg_spi\.buffer\[11\]
*986 cfg_spi\.buffer\[12\]
*987 cfg_spi\.buffer\[13\]
*988 cfg_spi\.buffer\[14\]
*989 cfg_spi\.buffer\[15\]
*990 cfg_spi\.buffer\[16\]
*991 cfg_spi\.buffer\[17\]
*992 cfg_spi\.buffer\[18\]
*993 cfg_spi\.buffer\[19\]
*994 cfg_spi\.buffer\[1\]
*995 cfg_spi\.buffer\[20\]
*996 cfg_spi\.buffer\[21\]
*997 cfg_spi\.buffer\[22\]
*998 cfg_spi\.buffer\[23\]
*999 cfg_spi\.buffer\[2\]
*1000 cfg_spi\.buffer\[3\]
*1001 cfg_spi\.buffer\[4\]
*1002 cfg_spi\.buffer\[5\]
*1003 cfg_spi\.buffer\[6\]
*1004 cfg_spi\.buffer\[7\]
*1005 cfg_spi\.buffer\[8\]
*1006 cfg_spi\.buffer\[9\]
*1007 cfg_spi\.sck_last
*1008 clknet_0_io_in[0]
*1009 clknet_3_0__leaf_io_in[0]
*1010 clknet_3_1__leaf_io_in[0]
*1011 clknet_3_2__leaf_io_in[0]
*1012 clknet_3_3__leaf_io_in[0]
*1013 clknet_3_4__leaf_io_in[0]
*1014 clknet_3_5__leaf_io_in[0]
*1015 clknet_3_6__leaf_io_in[0]
*1016 clknet_3_7__leaf_io_in[0]
*1017 net1
*1018 net2
*1019 net3
*1020 net4
*1021 net5
*1022 pid\.error\[0\]
*1023 pid\.error\[1\]
*1024 pid\.error\[2\]
*1025 pid\.error\[3\]
*1026 pid\.error\[4\]
*1027 pid\.error\[5\]
*1028 pid\.error\[6\]
*1029 pid\.error\[7\]
*1030 pid\.error\[8\]
*1031 pid\.error_i\[0\]
*1032 pid\.error_i\[1\]
*1033 pid\.error_i\[2\]
*1034 pid\.error_i\[3\]
*1035 pid\.error_i\[4\]
*1036 pid\.error_i\[5\]
*1037 pid\.error_i\[6\]
*1038 pid\.error_i\[7\]
*1039 pid\.error_i\[8\]
*1040 pid\.pv\[0\]
*1041 pid\.pv\[1\]
*1042 pid\.pv\[2\]
*1043 pid\.pv\[3\]
*1044 pid\.pv\[4\]
*1045 pid\.pv\[5\]
*1046 pid\.pv\[6\]
*1047 pid\.pv\[7\]
*1048 pv_in_cs_hist\[0\]
*1049 pv_in_cs_hist\[1\]
*1050 pv_stb_gen\.count\[0\]
*1051 pv_stb_gen\.count\[10\]
*1052 pv_stb_gen\.count\[11\]
*1053 pv_stb_gen\.count\[12\]
*1054 pv_stb_gen\.count\[13\]
*1055 pv_stb_gen\.count\[14\]
*1056 pv_stb_gen\.count\[15\]
*1057 pv_stb_gen\.count\[1\]
*1058 pv_stb_gen\.count\[2\]
*1059 pv_stb_gen\.count\[3\]
*1060 pv_stb_gen\.count\[4\]
*1061 pv_stb_gen\.count\[5\]
*1062 pv_stb_gen\.count\[6\]
*1063 pv_stb_gen\.count\[7\]
*1064 pv_stb_gen\.count\[8\]
*1065 pv_stb_gen\.count\[9\]
*1066 spi_in\.bi\[0\]
*1067 spi_in\.bi\[1\]
*1068 spi_in\.bi\[2\]
*1069 spi_in\.cs
*1070 spi_in\.phase
*1071 spi_in\.sck
*1072 spi_in\.stb\[0\]
*1073 spi_in\.stb\[1\]
*1074 spi_in\.stb\[2\]
*1075 spi_out\.bi\[0\]
*1076 spi_out\.bi\[1\]
*1077 spi_out\.bi\[2\]
*1078 spi_out\.cs
*1079 spi_out\.mosi
*1080 spi_out\.phase
*1081 spi_out\.sck
*1082 spi_out\.start
*1083 spi_out\.stb\[0\]
*1084 spi_out\.stb\[1\]
*1085 spi_out\.stb\[2\]
*1086 ANTENNA_1
*1087 ANTENNA_10
*1088 ANTENNA_11
*1089 ANTENNA_12
*1090 ANTENNA_13
*1091 ANTENNA_14
*1092 ANTENNA_15
*1093 ANTENNA_16
*1094 ANTENNA_17
*1095 ANTENNA_18
*1096 ANTENNA_19
*1097 ANTENNA_2
*1098 ANTENNA_20
*1099 ANTENNA_21
*1100 ANTENNA_22
*1101 ANTENNA_23
*1102 ANTENNA_24
*1103 ANTENNA_25
*1104 ANTENNA_26
*1105 ANTENNA_27
*1106 ANTENNA_28
*1107 ANTENNA_29
*1108 ANTENNA_3
*1109 ANTENNA_30
*1110 ANTENNA_31
*1111 ANTENNA_32
*1112 ANTENNA_33
*1113 ANTENNA_34
*1114 ANTENNA_35
*1115 ANTENNA_36
*1116 ANTENNA_4
*1117 ANTENNA_5
*1118 ANTENNA_6
*1119 ANTENNA_7
*1120 ANTENNA_8
*1121 ANTENNA_9
*1122 AidanMedcalf_pid_controller_6
*1123 AidanMedcalf_pid_controller_7
*1124 AidanMedcalf_pid_controller_8
*1125 FILLER_0_104
*1126 FILLER_0_108
*1127 FILLER_0_113
*1128 FILLER_0_131
*1129 FILLER_0_138
*1130 FILLER_0_141
*1131 FILLER_0_159
*1132 FILLER_0_163
*1133 FILLER_0_167
*1134 FILLER_0_169
*1135 FILLER_0_181
*1136 FILLER_0_193
*1137 FILLER_0_197
*1138 FILLER_0_209
*1139 FILLER_0_22
*1140 FILLER_0_221
*1141 FILLER_0_225
*1142 FILLER_0_231
*1143 FILLER_0_237
*1144 FILLER_0_249
*1145 FILLER_0_253
*1146 FILLER_0_265
*1147 FILLER_0_277
*1148 FILLER_0_281
*1149 FILLER_0_29
*1150 FILLER_0_293
*1151 FILLER_0_3
*1152 FILLER_0_48
*1153 FILLER_0_52
*1154 FILLER_0_57
*1155 FILLER_0_75
*1156 FILLER_0_79
*1157 FILLER_0_83
*1158 FILLER_0_85
*1159 FILLER_10_106
*1160 FILLER_10_117
*1161 FILLER_10_133
*1162 FILLER_10_139
*1163 FILLER_10_141
*1164 FILLER_10_147
*1165 FILLER_10_160
*1166 FILLER_10_171
*1167 FILLER_10_182
*1168 FILLER_10_186
*1169 FILLER_10_192
*1170 FILLER_10_197
*1171 FILLER_10_201
*1172 FILLER_10_209
*1173 FILLER_10_22
*1174 FILLER_10_230
*1175 FILLER_10_243
*1176 FILLER_10_251
*1177 FILLER_10_253
*1178 FILLER_10_26
*1179 FILLER_10_263
*1180 FILLER_10_271
*1181 FILLER_10_277
*1182 FILLER_10_289
*1183 FILLER_10_29
*1184 FILLER_10_295
*1185 FILLER_10_3
*1186 FILLER_10_43
*1187 FILLER_10_61
*1188 FILLER_10_82
*1189 FILLER_10_85
*1190 FILLER_10_89
*1191 FILLER_11_103
*1192 FILLER_11_110
*1193 FILLER_11_113
*1194 FILLER_11_117
*1195 FILLER_11_128
*1196 FILLER_11_135
*1197 FILLER_11_149
*1198 FILLER_11_15
*1199 FILLER_11_160
*1200 FILLER_11_169
*1201 FILLER_11_174
*1202 FILLER_11_180
*1203 FILLER_11_186
*1204 FILLER_11_194
*1205 FILLER_11_199
*1206 FILLER_11_211
*1207 FILLER_11_223
*1208 FILLER_11_225
*1209 FILLER_11_237
*1210 FILLER_11_249
*1211 FILLER_11_261
*1212 FILLER_11_274
*1213 FILLER_11_281
*1214 FILLER_11_289
*1215 FILLER_11_297
*1216 FILLER_11_3
*1217 FILLER_11_36
*1218 FILLER_11_48
*1219 FILLER_11_57
*1220 FILLER_11_69
*1221 FILLER_11_93
*1222 FILLER_11_99
*1223 FILLER_12_105
*1224 FILLER_12_125
*1225 FILLER_12_138
*1226 FILLER_12_141
*1227 FILLER_12_157
*1228 FILLER_12_165
*1229 FILLER_12_173
*1230 FILLER_12_187
*1231 FILLER_12_194
*1232 FILLER_12_197
*1233 FILLER_12_206
*1234 FILLER_12_214
*1235 FILLER_12_222
*1236 FILLER_12_231
*1237 FILLER_12_235
*1238 FILLER_12_240
*1239 FILLER_12_247
*1240 FILLER_12_251
*1241 FILLER_12_253
*1242 FILLER_12_26
*1243 FILLER_12_261
*1244 FILLER_12_273
*1245 FILLER_12_285
*1246 FILLER_12_29
*1247 FILLER_12_297
*1248 FILLER_12_3
*1249 FILLER_12_33
*1250 FILLER_12_36
*1251 FILLER_12_55
*1252 FILLER_12_81
*1253 FILLER_12_85
*1254 FILLER_12_9
*1255 FILLER_13_108
*1256 FILLER_13_113
*1257 FILLER_13_122
*1258 FILLER_13_128
*1259 FILLER_13_135
*1260 FILLER_13_151
*1261 FILLER_13_166
*1262 FILLER_13_169
*1263 FILLER_13_178
*1264 FILLER_13_188
*1265 FILLER_13_194
*1266 FILLER_13_198
*1267 FILLER_13_205
*1268 FILLER_13_217
*1269 FILLER_13_223
*1270 FILLER_13_225
*1271 FILLER_13_233
*1272 FILLER_13_247
*1273 FILLER_13_25
*1274 FILLER_13_257
*1275 FILLER_13_266
*1276 FILLER_13_278
*1277 FILLER_13_281
*1278 FILLER_13_293
*1279 FILLER_13_3
*1280 FILLER_13_33
*1281 FILLER_13_52
*1282 FILLER_13_57
*1283 FILLER_13_65
*1284 FILLER_13_68
*1285 FILLER_13_7
*1286 FILLER_13_86
*1287 FILLER_13_90
*1288 FILLER_14_105
*1289 FILLER_14_109
*1290 FILLER_14_115
*1291 FILLER_14_125
*1292 FILLER_14_133
*1293 FILLER_14_139
*1294 FILLER_14_141
*1295 FILLER_14_150
*1296 FILLER_14_158
*1297 FILLER_14_170
*1298 FILLER_14_182
*1299 FILLER_14_186
*1300 FILLER_14_190
*1301 FILLER_14_197
*1302 FILLER_14_205
*1303 FILLER_14_211
*1304 FILLER_14_22
*1305 FILLER_14_222
*1306 FILLER_14_234
*1307 FILLER_14_240
*1308 FILLER_14_247
*1309 FILLER_14_251
*1310 FILLER_14_253
*1311 FILLER_14_265
*1312 FILLER_14_271
*1313 FILLER_14_276
*1314 FILLER_14_287
*1315 FILLER_14_29
*1316 FILLER_14_3
*1317 FILLER_14_34
*1318 FILLER_14_54
*1319 FILLER_14_60
*1320 FILLER_14_77
*1321 FILLER_14_83
*1322 FILLER_14_85
*1323 FILLER_15_103
*1324 FILLER_15_111
*1325 FILLER_15_113
*1326 FILLER_15_121
*1327 FILLER_15_129
*1328 FILLER_15_136
*1329 FILLER_15_144
*1330 FILLER_15_151
*1331 FILLER_15_159
*1332 FILLER_15_167
*1333 FILLER_15_169
*1334 FILLER_15_181
*1335 FILLER_15_193
*1336 FILLER_15_200
*1337 FILLER_15_204
*1338 FILLER_15_209
*1339 FILLER_15_215
*1340 FILLER_15_220
*1341 FILLER_15_225
*1342 FILLER_15_231
*1343 FILLER_15_238
*1344 FILLER_15_247
*1345 FILLER_15_26
*1346 FILLER_15_260
*1347 FILLER_15_272
*1348 FILLER_15_281
*1349 FILLER_15_289
*1350 FILLER_15_297
*1351 FILLER_15_3
*1352 FILLER_15_34
*1353 FILLER_15_53
*1354 FILLER_15_57
*1355 FILLER_15_75
*1356 FILLER_16_103
*1357 FILLER_16_115
*1358 FILLER_16_119
*1359 FILLER_16_126
*1360 FILLER_16_133
*1361 FILLER_16_139
*1362 FILLER_16_141
*1363 FILLER_16_150
*1364 FILLER_16_160
*1365 FILLER_16_169
*1366 FILLER_16_182
*1367 FILLER_16_193
*1368 FILLER_16_197
*1369 FILLER_16_206
*1370 FILLER_16_214
*1371 FILLER_16_222
*1372 FILLER_16_237
*1373 FILLER_16_243
*1374 FILLER_16_250
*1375 FILLER_16_253
*1376 FILLER_16_26
*1377 FILLER_16_268
*1378 FILLER_16_280
*1379 FILLER_16_29
*1380 FILLER_16_292
*1381 FILLER_16_298
*1382 FILLER_16_3
*1383 FILLER_16_41
*1384 FILLER_16_47
*1385 FILLER_16_65
*1386 FILLER_16_7
*1387 FILLER_16_77
*1388 FILLER_16_83
*1389 FILLER_16_85
*1390 FILLER_17_105
*1391 FILLER_17_111
*1392 FILLER_17_113
*1393 FILLER_17_127
*1394 FILLER_17_137
*1395 FILLER_17_143
*1396 FILLER_17_147
*1397 FILLER_17_155
*1398 FILLER_17_167
*1399 FILLER_17_169
*1400 FILLER_17_178
*1401 FILLER_17_186
*1402 FILLER_17_194
*1403 FILLER_17_198
*1404 FILLER_17_202
*1405 FILLER_17_219
*1406 FILLER_17_223
*1407 FILLER_17_225
*1408 FILLER_17_246
*1409 FILLER_17_258
*1410 FILLER_17_266
*1411 FILLER_17_274
*1412 FILLER_17_281
*1413 FILLER_17_286
*1414 FILLER_17_290
*1415 FILLER_17_296
*1416 FILLER_17_3
*1417 FILLER_17_36
*1418 FILLER_17_48
*1419 FILLER_17_57
*1420 FILLER_17_69
*1421 FILLER_17_8
*1422 FILLER_17_93
*1423 FILLER_18_109
*1424 FILLER_18_113
*1425 FILLER_18_120
*1426 FILLER_18_132
*1427 FILLER_18_141
*1428 FILLER_18_150
*1429 FILLER_18_158
*1430 FILLER_18_164
*1431 FILLER_18_176
*1432 FILLER_18_184
*1433 FILLER_18_197
*1434 FILLER_18_205
*1435 FILLER_18_21
*1436 FILLER_18_214
*1437 FILLER_18_218
*1438 FILLER_18_232
*1439 FILLER_18_236
*1440 FILLER_18_241
*1441 FILLER_18_245
*1442 FILLER_18_250
*1443 FILLER_18_253
*1444 FILLER_18_262
*1445 FILLER_18_27
*1446 FILLER_18_270
*1447 FILLER_18_280
*1448 FILLER_18_289
*1449 FILLER_18_29
*1450 FILLER_18_297
*1451 FILLER_18_3
*1452 FILLER_18_41
*1453 FILLER_18_62
*1454 FILLER_18_82
*1455 FILLER_18_85
*1456 FILLER_19_110
*1457 FILLER_19_113
*1458 FILLER_19_131
*1459 FILLER_19_139
*1460 FILLER_19_145
*1461 FILLER_19_15
*1462 FILLER_19_153
*1463 FILLER_19_163
*1464 FILLER_19_167
*1465 FILLER_19_169
*1466 FILLER_19_177
*1467 FILLER_19_189
*1468 FILLER_19_197
*1469 FILLER_19_205
*1470 FILLER_19_211
*1471 FILLER_19_218
*1472 FILLER_19_225
*1473 FILLER_19_231
*1474 FILLER_19_237
*1475 FILLER_19_246
*1476 FILLER_19_252
*1477 FILLER_19_258
*1478 FILLER_19_265
*1479 FILLER_19_274
*1480 FILLER_19_281
*1481 FILLER_19_293
*1482 FILLER_19_3
*1483 FILLER_19_36
*1484 FILLER_19_48
*1485 FILLER_19_57
*1486 FILLER_19_69
*1487 FILLER_19_73
*1488 FILLER_19_90
*1489 FILLER_1_105
*1490 FILLER_1_111
*1491 FILLER_1_129
*1492 FILLER_1_133
*1493 FILLER_1_15
*1494 FILLER_1_151
*1495 FILLER_1_157
*1496 FILLER_1_163
*1497 FILLER_1_167
*1498 FILLER_1_169
*1499 FILLER_1_173
*1500 FILLER_1_181
*1501 FILLER_1_193
*1502 FILLER_1_205
*1503 FILLER_1_217
*1504 FILLER_1_223
*1505 FILLER_1_225
*1506 FILLER_1_232
*1507 FILLER_1_236
*1508 FILLER_1_243
*1509 FILLER_1_255
*1510 FILLER_1_263
*1511 FILLER_1_275
*1512 FILLER_1_279
*1513 FILLER_1_281
*1514 FILLER_1_293
*1515 FILLER_1_3
*1516 FILLER_1_38
*1517 FILLER_1_50
*1518 FILLER_1_57
*1519 FILLER_1_75
*1520 FILLER_1_83
*1521 FILLER_1_87
*1522 FILLER_20_111
*1523 FILLER_20_131
*1524 FILLER_20_138
*1525 FILLER_20_141
*1526 FILLER_20_150
*1527 FILLER_20_158
*1528 FILLER_20_166
*1529 FILLER_20_174
*1530 FILLER_20_187
*1531 FILLER_20_194
*1532 FILLER_20_197
*1533 FILLER_20_210
*1534 FILLER_20_220
*1535 FILLER_20_232
*1536 FILLER_20_242
*1537 FILLER_20_250
*1538 FILLER_20_253
*1539 FILLER_20_259
*1540 FILLER_20_26
*1541 FILLER_20_265
*1542 FILLER_20_269
*1543 FILLER_20_273
*1544 FILLER_20_29
*1545 FILLER_20_290
*1546 FILLER_20_298
*1547 FILLER_20_3
*1548 FILLER_20_57
*1549 FILLER_20_78
*1550 FILLER_20_85
*1551 FILLER_20_9
*1552 FILLER_20_93
*1553 FILLER_21_107
*1554 FILLER_21_111
*1555 FILLER_21_113
*1556 FILLER_21_123
*1557 FILLER_21_137
*1558 FILLER_21_145
*1559 FILLER_21_15
*1560 FILLER_21_154
*1561 FILLER_21_164
*1562 FILLER_21_169
*1563 FILLER_21_177
*1564 FILLER_21_186
*1565 FILLER_21_194
*1566 FILLER_21_200
*1567 FILLER_21_209
*1568 FILLER_21_221
*1569 FILLER_21_225
*1570 FILLER_21_231
*1571 FILLER_21_241
*1572 FILLER_21_249
*1573 FILLER_21_256
*1574 FILLER_21_266
*1575 FILLER_21_274
*1576 FILLER_21_281
*1577 FILLER_21_285
*1578 FILLER_21_292
*1579 FILLER_21_298
*1580 FILLER_21_3
*1581 FILLER_21_34
*1582 FILLER_21_54
*1583 FILLER_21_57
*1584 FILLER_21_65
*1585 FILLER_21_82
*1586 FILLER_21_90
*1587 FILLER_22_103
*1588 FILLER_22_107
*1589 FILLER_22_118
*1590 FILLER_22_122
*1591 FILLER_22_129
*1592 FILLER_22_138
*1593 FILLER_22_141
*1594 FILLER_22_149
*1595 FILLER_22_157
*1596 FILLER_22_161
*1597 FILLER_22_169
*1598 FILLER_22_177
*1599 FILLER_22_184
*1600 FILLER_22_193
*1601 FILLER_22_197
*1602 FILLER_22_207
*1603 FILLER_22_21
*1604 FILLER_22_214
*1605 FILLER_22_221
*1606 FILLER_22_233
*1607 FILLER_22_241
*1608 FILLER_22_249
*1609 FILLER_22_253
*1610 FILLER_22_268
*1611 FILLER_22_27
*1612 FILLER_22_279
*1613 FILLER_22_287
*1614 FILLER_22_29
*1615 FILLER_22_295
*1616 FILLER_22_3
*1617 FILLER_22_41
*1618 FILLER_22_60
*1619 FILLER_22_80
*1620 FILLER_22_85
*1621 FILLER_23_104
*1622 FILLER_23_113
*1623 FILLER_23_117
*1624 FILLER_23_126
*1625 FILLER_23_138
*1626 FILLER_23_150
*1627 FILLER_23_162
*1628 FILLER_23_169
*1629 FILLER_23_17
*1630 FILLER_23_179
*1631 FILLER_23_187
*1632 FILLER_23_195
*1633 FILLER_23_203
*1634 FILLER_23_214
*1635 FILLER_23_222
*1636 FILLER_23_225
*1637 FILLER_23_232
*1638 FILLER_23_243
*1639 FILLER_23_25
*1640 FILLER_23_251
*1641 FILLER_23_261
*1642 FILLER_23_269
*1643 FILLER_23_274
*1644 FILLER_23_281
*1645 FILLER_23_288
*1646 FILLER_23_297
*1647 FILLER_23_3
*1648 FILLER_23_31
*1649 FILLER_23_48
*1650 FILLER_23_57
*1651 FILLER_23_65
*1652 FILLER_23_77
*1653 FILLER_23_85
*1654 FILLER_23_9
*1655 FILLER_24_101
*1656 FILLER_24_105
*1657 FILLER_24_11
*1658 FILLER_24_114
*1659 FILLER_24_124
*1660 FILLER_24_138
*1661 FILLER_24_141
*1662 FILLER_24_149
*1663 FILLER_24_155
*1664 FILLER_24_163
*1665 FILLER_24_168
*1666 FILLER_24_179
*1667 FILLER_24_183
*1668 FILLER_24_188
*1669 FILLER_24_197
*1670 FILLER_24_206
*1671 FILLER_24_21
*1672 FILLER_24_214
*1673 FILLER_24_221
*1674 FILLER_24_234
*1675 FILLER_24_246
*1676 FILLER_24_253
*1677 FILLER_24_261
*1678 FILLER_24_27
*1679 FILLER_24_270
*1680 FILLER_24_278
*1681 FILLER_24_287
*1682 FILLER_24_29
*1683 FILLER_24_296
*1684 FILLER_24_3
*1685 FILLER_24_35
*1686 FILLER_24_41
*1687 FILLER_24_45
*1688 FILLER_24_52
*1689 FILLER_24_62
*1690 FILLER_24_74
*1691 FILLER_24_79
*1692 FILLER_24_83
*1693 FILLER_24_85
*1694 FILLER_24_93
*1695 FILLER_25_105
*1696 FILLER_25_111
*1697 FILLER_25_113
*1698 FILLER_25_125
*1699 FILLER_25_135
*1700 FILLER_25_144
*1701 FILLER_25_148
*1702 FILLER_25_153
*1703 FILLER_25_157
*1704 FILLER_25_162
*1705 FILLER_25_169
*1706 FILLER_25_181
*1707 FILLER_25_189
*1708 FILLER_25_197
*1709 FILLER_25_205
*1710 FILLER_25_213
*1711 FILLER_25_219
*1712 FILLER_25_22
*1713 FILLER_25_223
*1714 FILLER_25_225
*1715 FILLER_25_239
*1716 FILLER_25_243
*1717 FILLER_25_248
*1718 FILLER_25_260
*1719 FILLER_25_272
*1720 FILLER_25_281
*1721 FILLER_25_297
*1722 FILLER_25_3
*1723 FILLER_25_36
*1724 FILLER_25_44
*1725 FILLER_25_52
*1726 FILLER_25_57
*1727 FILLER_25_66
*1728 FILLER_25_74
*1729 FILLER_25_8
*1730 FILLER_25_81
*1731 FILLER_25_91
*1732 FILLER_26_102
*1733 FILLER_26_11
*1734 FILLER_26_110
*1735 FILLER_26_116
*1736 FILLER_26_128
*1737 FILLER_26_136
*1738 FILLER_26_141
*1739 FILLER_26_15
*1740 FILLER_26_153
*1741 FILLER_26_161
*1742 FILLER_26_167
*1743 FILLER_26_180
*1744 FILLER_26_188
*1745 FILLER_26_19
*1746 FILLER_26_197
*1747 FILLER_26_206
*1748 FILLER_26_217
*1749 FILLER_26_228
*1750 FILLER_26_239
*1751 FILLER_26_245
*1752 FILLER_26_250
*1753 FILLER_26_253
*1754 FILLER_26_26
*1755 FILLER_26_261
*1756 FILLER_26_268
*1757 FILLER_26_278
*1758 FILLER_26_29
*1759 FILLER_26_296
*1760 FILLER_26_3
*1761 FILLER_26_37
*1762 FILLER_26_44
*1763 FILLER_26_55
*1764 FILLER_26_66
*1765 FILLER_26_74
*1766 FILLER_26_82
*1767 FILLER_26_85
*1768 FILLER_26_91
*1769 FILLER_27_105
*1770 FILLER_27_111
*1771 FILLER_27_113
*1772 FILLER_27_121
*1773 FILLER_27_129
*1774 FILLER_27_13
*1775 FILLER_27_141
*1776 FILLER_27_149
*1777 FILLER_27_157
*1778 FILLER_27_165
*1779 FILLER_27_169
*1780 FILLER_27_176
*1781 FILLER_27_183
*1782 FILLER_27_187
*1783 FILLER_27_194
*1784 FILLER_27_21
*1785 FILLER_27_210
*1786 FILLER_27_216
*1787 FILLER_27_222
*1788 FILLER_27_225
*1789 FILLER_27_246
*1790 FILLER_27_255
*1791 FILLER_27_263
*1792 FILLER_27_269
*1793 FILLER_27_277
*1794 FILLER_27_28
*1795 FILLER_27_281
*1796 FILLER_27_290
*1797 FILLER_27_298
*1798 FILLER_27_3
*1799 FILLER_27_40
*1800 FILLER_27_52
*1801 FILLER_27_57
*1802 FILLER_27_64
*1803 FILLER_27_74
*1804 FILLER_27_78
*1805 FILLER_27_85
*1806 FILLER_27_95
*1807 FILLER_28_106
*1808 FILLER_28_11
*1809 FILLER_28_114
*1810 FILLER_28_122
*1811 FILLER_28_127
*1812 FILLER_28_138
*1813 FILLER_28_141
*1814 FILLER_28_151
*1815 FILLER_28_160
*1816 FILLER_28_167
*1817 FILLER_28_171
*1818 FILLER_28_175
*1819 FILLER_28_184
*1820 FILLER_28_197
*1821 FILLER_28_203
*1822 FILLER_28_207
*1823 FILLER_28_215
*1824 FILLER_28_221
*1825 FILLER_28_23
*1826 FILLER_28_238
*1827 FILLER_28_247
*1828 FILLER_28_251
*1829 FILLER_28_253
*1830 FILLER_28_261
*1831 FILLER_28_27
*1832 FILLER_28_274
*1833 FILLER_28_286
*1834 FILLER_28_29
*1835 FILLER_28_295
*1836 FILLER_28_3
*1837 FILLER_28_36
*1838 FILLER_28_48
*1839 FILLER_28_57
*1840 FILLER_28_69
*1841 FILLER_28_73
*1842 FILLER_28_77
*1843 FILLER_28_83
*1844 FILLER_28_85
*1845 FILLER_28_97
*1846 FILLER_29_105
*1847 FILLER_29_111
*1848 FILLER_29_113
*1849 FILLER_29_117
*1850 FILLER_29_123
*1851 FILLER_29_131
*1852 FILLER_29_14
*1853 FILLER_29_144
*1854 FILLER_29_152
*1855 FILLER_29_159
*1856 FILLER_29_166
*1857 FILLER_29_169
*1858 FILLER_29_176
*1859 FILLER_29_190
*1860 FILLER_29_200
*1861 FILLER_29_210
*1862 FILLER_29_219
*1863 FILLER_29_223
*1864 FILLER_29_225
*1865 FILLER_29_233
*1866 FILLER_29_24
*1867 FILLER_29_240
*1868 FILLER_29_248
*1869 FILLER_29_255
*1870 FILLER_29_267
*1871 FILLER_29_279
*1872 FILLER_29_281
*1873 FILLER_29_293
*1874 FILLER_29_3
*1875 FILLER_29_31
*1876 FILLER_29_41
*1877 FILLER_29_45
*1878 FILLER_29_54