*SPEF "ieee 1481-1999"
*DESIGN "aidan_mcnay_PrimeDetector"
*DATE "11:11:11 Fri 11 11, 1111"
*VENDOR "OpenRCX"
*PROGRAM "Parallel Extraction"
*VERSION "1.0"
*DESIGN_FLOW "NAME_SCOPE LOCAL" "PIN_CAP NONE"
*DIVIDER /
*DELIMITER :
*BUS_DELIMITER []
*T_UNIT 1 NS
*C_UNIT 1 PF
*R_UNIT 1 OHM
*L_UNIT 1 HENRY

*NAME_MAP
*1 io_in[0]
*2 io_in[1]
*3 io_in[2]
*4 io_in[3]
*5 io_in[4]
*6 io_in[5]
*7 io_in[6]
*8 io_in[7]
*9 io_out[0]
*10 io_out[1]
*11 io_out[2]
*12 net10
*13 net11
*14 net12
*15 net13
*16 net14
*19 _0000_
*20 _0001_
*21 _0002_
*22 _0003_
*23 _0004_
*24 _0005_
*25 _0006_
*26 _0007_
*27 _0008_
*28 _0009_
*29 _0010_
*30 _0011_
*31 _0012_
*32 _0013_
*33 _0014_
*34 _0015_
*35 _0016_
*36 _0017_
*37 _0018_
*38 _0019_
*39 _0020_
*40 _0021_
*41 _0022_
*42 _0023_
*43 _0024_
*44 _0025_
*45 _0026_
*46 _0027_
*47 _0028_
*48 _0029_
*49 _0030_
*50 _0031_
*51 _0032_
*52 _0033_
*53 _0034_
*54 _0035_
*55 _0036_
*56 _0037_
*57 _0038_
*58 _0039_
*59 _0040_
*60 _0041_
*61 _0042_
*62 _0043_
*63 _0044_
*64 _0045_
*65 _0046_
*66 _0047_
*67 _0048_
*68 _0049_
*69 _0050_
*70 _0051_
*71 _0052_
*72 _0053_
*73 _0054_
*74 _0055_
*75 _0056_
*76 _0057_
*77 _0058_
*78 _0059_
*79 _0060_
*80 _0061_
*81 _0062_
*82 _0063_
*83 _0064_
*84 _0065_
*85 _0066_
*86 _0067_
*87 _0068_
*88 _0069_
*89 _0070_
*90 _0071_
*91 _0072_
*92 _0073_
*93 _0074_
*94 _0075_
*95 _0076_
*96 _0077_
*97 _0078_
*98 _0079_
*99 _0080_
*100 _0081_
*101 _0082_
*102 _0083_
*103 _0084_
*104 _0085_
*105 _0086_
*106 _0087_
*107 _0088_
*108 _0089_
*109 _0090_
*110 _0091_
*111 _0092_
*112 _0093_
*113 _0094_
*114 _0095_
*115 _0096_
*116 _0097_
*117 _0098_
*118 _0099_
*119 _0100_
*120 _0101_
*121 _0102_
*122 _0103_
*123 _0104_
*124 _0105_
*125 _0106_
*126 _0107_
*127 _0108_
*128 _0109_
*129 _0110_
*130 _0111_
*131 _0112_
*132 _0113_
*133 _0114_
*134 _0115_
*135 _0116_
*136 _0117_
*137 _0118_
*138 _0119_
*139 _0120_
*140 _0121_
*141 _0122_
*142 _0123_
*143 _0124_
*144 _0125_
*145 _0126_
*146 _0127_
*147 _0128_
*148 _0129_
*149 _0130_
*150 _0131_
*151 _0132_
*152 _0133_
*153 _0134_
*154 _0135_
*155 _0136_
*156 _0137_
*157 _0138_
*158 _0139_
*159 _0140_
*160 _0141_
*161 _0142_
*162 _0143_
*163 _0144_
*164 _0145_
*165 _0146_
*166 _0147_
*167 _0148_
*168 _0149_
*169 _0150_
*170 _0151_
*171 _0152_
*172 _0153_
*173 _0154_
*174 _0155_
*175 _0156_
*176 _0157_
*177 _0158_
*178 _0159_
*179 _0160_
*180 _0161_
*181 _0162_
*182 _0163_
*183 _0164_
*184 _0165_
*185 _0166_
*186 _0167_
*187 _0168_
*188 _0169_
*189 _0170_
*190 _0171_
*191 _0172_
*192 _0173_
*193 _0174_
*194 _0175_
*195 _0176_
*196 _0177_
*197 _0178_
*198 _0179_
*199 _0180_
*200 _0181_
*201 _0182_
*202 _0183_
*203 _0184_
*204 _0185_
*205 _0186_
*206 _0187_
*207 _0188_
*208 _0189_
*209 _0190_
*210 _0191_
*211 _0192_
*212 _0193_
*213 _0194_
*214 _0195_
*215 _0196_
*216 _0197_
*217 _0198_
*218 _0199_
*219 _0200_
*220 _0201_
*221 _0202_
*222 _0203_
*223 _0204_
*224 _0205_
*225 _0206_
*226 _0207_
*227 _0208_
*228 _0209_
*229 _0210_
*230 _0211_
*231 _0212_
*232 _0213_
*233 _0214_
*234 _0215_
*235 _0216_
*236 _0217_
*237 _0218_
*238 _0219_
*239 _0220_
*240 _0221_
*241 _0222_
*242 _0223_
*243 _0224_
*244 _0225_
*245 _0226_
*246 _0227_
*247 _0228_
*248 _0229_
*249 _0230_
*250 _0231_
*251 _0232_
*252 _0233_
*253 _0234_
*254 _0235_
*255 _0236_
*256 _0237_
*257 _0238_
*258 _0239_
*259 _0240_
*260 _0241_
*261 _0242_
*262 _0243_
*263 _0244_
*264 _0245_
*265 _0246_
*266 _0247_
*267 _0248_
*268 _0249_
*269 _0250_
*270 _0251_
*271 _0252_
*272 _0253_
*273 _0254_
*274 _0255_
*275 _0256_
*276 _0257_
*277 _0258_
*278 _0259_
*279 _0260_
*280 _0261_
*281 _0262_
*282 _0263_
*283 _0264_
*284 _0265_
*285 _0266_
*286 _0267_
*287 _0268_
*288 _0269_
*289 _0270_
*290 _0271_
*291 _0272_
*292 _0273_
*293 _0274_
*294 _0275_
*295 _0276_
*296 _0277_
*297 _0278_
*298 _0279_
*299 _0280_
*300 _0281_
*301 _0282_
*302 _0283_
*303 _0284_
*304 _0285_
*305 _0286_
*306 _0287_
*307 _0288_
*308 _0289_
*309 _0290_
*310 _0291_
*311 _0292_
*312 _0293_
*313 _0294_
*314 _0295_
*315 _0296_
*316 _0297_
*317 _0298_
*318 _0299_
*319 _0300_
*320 _0301_
*321 _0302_
*322 _0303_
*323 _0304_
*324 _0305_
*325 _0306_
*326 _0307_
*327 _0308_
*328 _0309_
*329 _0310_
*330 _0311_
*331 _0312_
*332 _0313_
*333 _0314_
*334 _0315_
*335 _0316_
*336 _0317_
*337 _0318_
*338 _0319_
*339 _0320_
*340 _0321_
*341 _0322_
*342 _0323_
*343 _0324_
*344 _0325_
*345 _0326_
*346 _0327_
*347 _0328_
*348 _0329_
*349 _0330_
*350 _0331_
*351 _0332_
*352 _0333_
*353 _0334_
*354 _0335_
*355 _0336_
*356 _0337_
*357 _0338_
*358 _0339_
*359 _0340_
*360 _0341_
*361 _0342_
*362 _0343_
*363 _0344_
*364 _0345_
*365 _0346_
*366 _0347_
*367 _0348_
*368 _0349_
*369 _0350_
*370 _0351_
*371 _0352_
*372 _0353_
*373 _0354_
*374 _0355_
*375 _0356_
*376 _0357_
*377 _0358_
*378 _0359_
*379 _0360_
*380 _0361_
*381 _0362_
*382 _0363_
*383 _0364_
*384 _0365_
*385 _0366_
*386 _0367_
*387 _0368_
*388 _0369_
*389 _0370_
*390 _0371_
*391 _0372_
*392 _0373_
*393 _0374_
*394 _0375_
*395 _0376_
*396 _0377_
*397 _0378_
*398 _0379_
*399 _0380_
*400 _0381_
*401 _0382_
*402 _0383_
*403 _0384_
*404 _0385_
*405 _0386_
*406 _0387_
*407 _0388_
*408 _0389_
*409 _0390_
*410 _0391_
*411 _0392_
*412 _0393_
*413 _0394_
*414 _0395_
*415 _0396_
*416 _0397_
*417 _0398_
*418 _0399_
*419 _0400_
*420 _0401_
*421 _0402_
*422 _0403_
*423 _0404_
*424 _0405_
*425 _0406_
*426 _0407_
*427 _0408_
*428 _0409_
*429 _0410_
*430 _0411_
*431 _0412_
*432 _0413_
*433 _0414_
*434 _0415_
*435 _0416_
*436 _0417_
*437 _0418_
*438 _0419_
*439 _0420_
*440 _0421_
*441 _0422_
*442 _0423_
*443 _0424_
*444 _0425_
*445 _0426_
*446 _0427_
*447 _0428_
*448 _0429_
*449 _0430_
*450 _0431_
*451 _0432_
*452 _0433_
*453 _0434_
*454 _0435_
*455 _0436_
*456 _0437_
*457 _0438_
*458 _0439_
*459 _0440_
*460 _0441_
*461 _0442_
*462 _0443_
*463 _0444_
*464 _0445_
*465 _0446_
*466 _0447_
*467 _0448_
*468 _0449_
*469 _0450_
*470 _0451_
*471 _0452_
*472 _0453_
*473 _0454_
*474 _0455_
*475 _0456_
*476 _0457_
*477 _0458_
*478 _0459_
*479 _0460_
*480 _0461_
*481 _0462_
*482 _0463_
*483 _0464_
*484 _0465_
*485 _0466_
*486 _0467_
*487 _0468_
*488 _0469_
*489 _0470_
*490 _0471_
*491 _0472_
*492 _0473_
*493 _0474_
*494 _0475_
*495 _0476_
*496 _0477_
*497 _0478_
*498 _0479_
*499 _0480_
*500 _0481_
*501 _0482_
*502 _0483_
*503 _0484_
*504 _0485_
*505 _0486_
*506 _0487_
*507 _0488_
*508 _0489_
*509 _0490_
*510 _0491_
*511 _0492_
*512 _0493_
*513 _0494_
*514 _0495_
*515 _0496_
*516 _0497_
*517 _0498_
*518 _0499_
*519 _0500_
*520 _0501_
*521 _0502_
*522 _0503_
*523 _0504_
*524 _0505_
*525 _0506_
*526 _0507_
*527 _0508_
*528 _0509_
*529 _0510_
*530 _0511_
*531 _0512_
*532 _0513_
*533 _0514_
*534 _0515_
*535 _0516_
*536 _0517_
*537 _0518_
*538 _0519_
*539 _0520_
*540 _0521_
*541 _0522_
*542 _0523_
*543 _0524_
*544 _0525_
*545 _0526_
*546 _0527_
*547 _0528_
*548 _0529_
*549 _0530_
*550 _0531_
*551 _0532_
*552 _0533_
*553 _0534_
*554 _0535_
*555 _0536_
*556 _0537_
*557 _0538_
*558 _0539_
*559 _0540_
*560 _0541_
*561 _0542_
*562 _0543_
*563 _0544_
*564 _0545_
*565 _0546_
*566 _0547_
*567 _0548_
*568 _0549_
*569 _0550_
*570 _0551_
*571 _0552_
*572 _0553_
*573 _0554_
*574 _0555_
*575 _0556_
*576 _0557_
*577 _0558_
*578 _0559_
*579 _0560_
*580 _0561_
*581 _0562_
*582 _0563_
*583 _0564_
*584 _0565_
*585 _0566_
*586 _0567_
*587 _0568_
*588 _0569_
*589 _0570_
*590 _0571_
*591 _0572_
*592 _0573_
*593 _0574_
*594 _0575_
*595 _0576_
*596 _0577_
*597 _0578_
*598 _0579_
*599 _0580_
*600 _0581_
*601 _0582_
*602 _0583_
*603 _0584_
*604 _0585_
*605 _0586_
*606 _0587_
*607 _0588_
*608 _0589_
*609 _0590_
*610 _0591_
*611 _0592_
*612 _0593_
*613 _0594_
*614 _0595_
*615 _0596_
*616 _0597_
*617 _0598_
*618 _0599_
*619 _0600_
*620 _0601_
*621 _0602_
*622 _0603_
*623 _0604_
*624 _0605_
*625 _0606_
*626 _0607_
*627 _0608_
*628 _0609_
*629 _0610_
*630 _0611_
*631 _0612_
*632 _0613_
*633 _0614_
*634 _0615_
*635 _0616_
*636 _0617_
*637 _0618_
*638 _0619_
*639 _0620_
*640 _0621_
*641 _0622_
*642 _0623_
*643 _0624_
*644 _0625_
*645 _0626_
*646 _0627_
*647 _0628_
*648 _0629_
*649 _0630_
*650 _0631_
*651 _0632_
*652 _0633_
*653 _0634_
*654 _0635_
*655 _0636_
*656 _0637_
*657 _0638_
*658 _0639_
*659 _0640_
*660 _0641_
*661 _0642_
*662 _0643_
*663 _0644_
*664 _0645_
*665 _0646_
*666 _0647_
*667 _0648_
*668 _0649_
*669 _0650_
*670 _0651_
*671 _0652_
*672 _0653_
*673 _0654_
*674 _0655_
*675 _0656_
*676 _0657_
*677 _0658_
*678 _0659_
*679 _0660_
*680 _0661_
*681 _0662_
*682 _0663_
*683 _0664_
*684 _0665_
*685 _0666_
*686 _0667_
*687 _0668_
*688 _0669_
*689 _0670_
*690 _0671_
*691 _0672_
*692 _0673_
*693 _0674_
*694 _0675_
*695 _0676_
*696 _0677_
*697 _0678_
*698 _0679_
*699 _0680_
*700 _0681_
*701 _0682_
*702 _0683_
*703 _0684_
*704 _0685_
*705 _0686_
*706 _0687_
*707 _0688_
*708 _0689_
*709 _0690_
*710 _0691_
*711 _0692_
*712 _0693_
*713 _0694_
*714 _0695_
*715 _0696_
*716 _0697_
*717 _0698_
*718 _0699_
*719 _0700_
*720 _0701_
*721 _0702_
*722 _0703_
*723 _0704_
*724 _0705_
*725 _0706_
*726 _0707_
*727 _0708_
*728 _0709_
*729 _0710_
*730 _0711_
*731 _0712_
*732 _0713_
*733 _0714_
*734 _0715_
*735 _0716_
*736 _0717_
*737 _0718_
*738 _0719_
*739 _0720_
*740 _0721_
*741 _0722_
*742 _0723_
*743 _0724_
*744 _0725_
*745 _0726_
*746 _0727_
*747 _0728_
*748 _0729_
*749 _0730_
*750 _0731_
*751 _0732_
*752 _0733_
*753 _0734_
*754 _0735_
*755 _0736_
*756 _0737_
*757 _0738_
*758 _0739_
*759 _0740_
*760 _0741_
*761 _0742_
*762 _0743_
*763 _0744_
*764 _0745_
*765 _0746_
*766 _0747_
*767 _0748_
*768 _0749_
*769 _0750_
*770 _0751_
*771 _0752_
*772 _0753_
*773 _0754_
*774 _0755_
*775 _0756_
*776 _0757_
*777 _0758_
*778 _0759_
*779 _0760_
*780 _0761_
*781 _0762_
*782 _0763_
*783 _0764_
*784 _0765_
*785 _0766_
*786 _0767_
*787 _0768_
*788 _0769_
*789 _0770_
*790 _0771_
*791 _0772_
*792 _0773_
*793 _0774_
*794 _0775_
*795 _0776_
*796 _0777_
*797 _0778_
*798 _0779_
*799 _0780_
*800 _0781_
*801 _0782_
*802 _0783_
*803 _0784_
*804 _0785_
*805 _0786_
*806 _0787_
*807 _0788_
*808 _0789_
*809 _0790_
*810 _0791_
*811 _0792_
*812 _0793_
*813 _0794_
*814 _0795_
*815 _0796_
*816 _0797_
*817 _0798_
*818 _0799_
*819 _0800_
*820 _0801_
*821 _0802_
*822 _0803_
*823 _0804_
*824 _0805_
*825 _0806_
*826 _0807_
*827 _0808_
*828 _0809_
*829 _0810_
*830 _0811_
*831 _0812_
*832 _0813_
*833 _0814_
*834 _0815_
*835 _0816_
*836 _0817_
*837 _0818_
*838 _0819_
*839 _0820_
*840 _0821_
*841 _0822_
*842 _0823_
*843 _0824_
*844 _0825_
*845 _0826_
*846 _0827_
*847 _0828_
*848 _0829_
*849 _0830_
*850 _0831_
*851 _0832_
*852 _0833_
*853 _0834_
*854 _0835_
*855 _0836_
*856 _0837_
*857 _0838_
*858 _0839_
*859 _0840_
*860 _0841_
*861 _0842_
*862 _0843_
*863 _0844_
*864 _0845_
*865 _0846_
*866 _0847_
*867 _0848_
*868 _0849_
*869 _0850_
*870 _0851_
*871 _0852_
*872 _0853_
*873 _0854_
*874 _0855_
*875 _0856_
*876 _0857_
*877 _0858_
*878 _0859_
*879 _0860_
*880 _0861_
*881 _0862_
*882 _0863_
*883 _0864_
*884 _0865_
*885 _0866_
*886 _0867_
*887 _0868_
*888 _0869_
*889 _0870_
*890 _0871_
*891 _0872_
*892 _0873_
*893 _0874_
*894 _0875_
*895 _0876_
*896 _0877_
*897 _0878_
*898 _0879_
*899 _0880_
*900 _0881_
*901 _0882_
*902 _0883_
*903 _0884_
*904 _0885_
*905 _0886_
*906 _0887_
*907 _0888_
*908 _0889_
*909 _0890_
*910 _0891_
*911 _0892_
*912 _0893_
*913 _0894_
*914 _0895_
*915 _0896_
*916 _0897_
*917 _0898_
*918 _0899_
*919 _0900_
*920 _0901_
*921 _0902_
*922 _0903_
*923 _0904_
*924 _0905_
*925 _0906_
*926 _0907_
*927 _0908_
*928 _0909_
*929 _0910_
*930 _0911_
*931 _0912_
*932 _0913_
*933 _0914_
*934 _0915_
*935 _0916_
*936 _0917_
*937 _0918_
*938 _0919_
*939 _0920_
*940 _0921_
*941 _0922_
*942 _0923_
*943 _0924_
*944 _0925_
*945 _0926_
*946 _0927_
*947 _0928_
*948 _0929_
*949 _0930_
*950 _0931_
*951 _0932_
*952 _0933_
*953 _0934_
*954 _0935_
*955 _0936_
*956 _0937_
*957 _0938_
*958 _0939_
*959 _0940_
*960 _0941_
*961 _0942_
*962 _0943_
*963 _0944_
*964 _0945_
*965 _0946_
*966 _0947_
*967 _0948_
*968 _0949_
*969 _0950_
*970 _0951_
*971 _0952_
*972 _0953_
*973 _0954_
*974 _0955_
*975 _0956_
*976 _0957_
*977 _0958_
*978 _0959_
*979 _0960_
*980 _0961_
*981 _0962_
*982 _0963_
*983 _0964_
*984 _0965_
*985 _0966_
*986 _0967_
*987 _0968_
*988 _0969_
*989 _0970_
*990 _0971_
*991 _0972_
*992 _0973_
*993 _0974_
*994 _0975_
*995 _0976_
*996 _0977_
*997 _0978_
*998 _0979_
*999 _0980_
*1000 _0981_
*1001 _0982_
*1002 _0983_
*1003 _0984_
*1004 _0985_
*1005 _0986_
*1006 _0987_
*1007 _0988_
*1008 _0989_
*1009 _0990_
*1010 _0991_
*1011 _0992_
*1012 _0993_
*1013 _0994_
*1014 _0995_
*1015 _0996_
*1016 _0997_
*1017 _0998_
*1018 _0999_
*1019 _1000_
*1020 _1001_
*1021 _1002_
*1022 _1003_
*1023 _1004_
*1024 _1005_
*1025 _1006_
*1026 _1007_
*1027 _1008_
*1028 _1009_
*1029 _1010_
*1030 _1011_
*1031 _1012_
*1032 _1013_
*1033 _1014_
*1034 _1015_
*1035 _1016_
*1036 _1017_
*1037 _1018_
*1038 _1019_
*1039 _1020_
*1040 _1021_
*1041 _1022_
*1042 _1023_
*1043 _1024_
*1044 _1025_
*1045 _1026_
*1046 _1027_
*1047 _1028_
*1048 _1029_
*1049 _1030_
*1050 _1031_
*1051 _1032_
*1052 _1033_
*1053 _1034_
*1054 _1035_
*1055 _1036_
*1056 _1037_
*1057 _1038_
*1058 _1039_
*1059 _1040_
*1060 _1041_
*1061 _1042_
*1062 _1043_
*1063 _1044_
*1064 _1045_
*1065 _1046_
*1066 _1047_
*1067 _1048_
*1068 _1049_
*1069 _1050_
*1070 _1051_
*1071 _1052_
*1072 _1053_
*1073 _1054_
*1074 _1055_
*1075 _1056_
*1076 _1057_
*1077 _1058_
*1078 _1059_
*1079 _1060_
*1080 _1061_
*1081 _1062_
*1082 _1063_
*1083 _1064_
*1084 _1065_
*1085 _1066_
*1086 _1067_
*1087 _1068_
*1088 _1069_
*1089 _1070_
*1090 _1071_
*1091 _1072_
*1092 _1073_
*1093 _1074_
*1094 _1075_
*1095 _1076_
*1096 _1077_
*1097 _1078_
*1098 _1079_
*1099 _1080_
*1100 _1081_
*1101 _1082_
*1102 _1083_
*1103 _1084_
*1104 _1085_
*1105 _1086_
*1106 _1087_
*1107 _1088_
*1108 _1089_
*1109 _1090_
*1110 _1091_
*1111 _1092_
*1112 _1093_
*1113 _1094_
*1114 _1095_
*1115 _1096_
*1116 _1097_
*1117 _1098_
*1118 _1099_
*1119 _1100_
*1120 change_detect\.in_sig_1
*1121 change_detect\.in_sig_2
*1122 change_detect\.in_signal
*1123 clknet_0_io_in[0]
*1124 clknet_4_0_0_io_in[0]
*1125 clknet_4_10_0_io_in[0]
*1126 clknet_4_11_0_io_in[0]
*1127 clknet_4_12_0_io_in[0]
*1128 clknet_4_13_0_io_in[0]
*1129 clknet_4_14_0_io_in[0]
*1130 clknet_4_15_0_io_in[0]
*1131 clknet_4_1_0_io_in[0]
*1132 clknet_4_2_0_io_in[0]
*1133 clknet_4_3_0_io_in[0]
*1134 clknet_4_4_0_io_in[0]
*1135 clknet_4_5_0_io_in[0]
*1136 clknet_4_6_0_io_in[0]
*1137 clknet_4_7_0_io_in[0]
*1138 clknet_4_8_0_io_in[0]
*1139 clknet_4_9_0_io_in[0]
*1140 counter\.counter_val\[0\]
*1141 counter\.counter_val\[10\]
*1142 counter\.counter_val\[11\]
*1143 counter\.counter_val\[12\]
*1144 counter\.counter_val\[13\]
*1145 counter\.counter_val\[14\]
*1146 counter\.counter_val\[15\]
*1147 counter\.counter_val\[16\]
*1148 counter\.counter_val\[17\]
*1149 counter\.counter_val\[18\]
*1150 counter\.counter_val\[19\]
*1151 counter\.counter_val\[1\]
*1152 counter\.counter_val\[20\]
*1153 counter\.counter_val\[21\]
*1154 counter\.counter_val\[22\]
*1155 counter\.counter_val\[23\]
*1156 counter\.counter_val\[24\]
*1157 counter\.counter_val\[25\]
*1158 counter\.counter_val\[26\]
*1159 counter\.counter_val\[27\]
*1160 counter\.counter_val\[28\]
*1161 counter\.counter_val\[29\]
*1162 counter\.counter_val\[2\]
*1163 counter\.counter_val\[30\]
*1164 counter\.counter_val\[3\]
*1165 counter\.counter_val\[4\]
*1166 counter\.counter_val\[5\]
*1167 counter\.counter_val\[6\]
*1168 counter\.counter_val\[7\]
*1169 counter\.counter_val\[8\]
*1170 counter\.counter_val\[9\]
*1171 counter\.en
*1172 counter\.latch_val
*1173 debouncer\.in
*1174 debouncer\.input_history\[0\]
*1175 debouncer\.input_history\[1\]
*1176 debouncer\.input_history\[2\]
*1177 debouncer\.input_history\[3\]
*1178 debouncer\.out
*1179 debouncer\.reset
*1180 div\.istream_rdy
*1181 div\.istream_val
*1182 div\.opa_reg\[0\]
*1183 div\.opa_reg\[10\]
*1184 div\.opa_reg\[11\]
*1185 div\.opa_reg\[12\]
*1186 div\.opa_reg\[13\]
*1187 div\.opa_reg\[14\]
*1188 div\.opa_reg\[15\]
*1189 div\.opa_reg\[16\]
*1190 div\.opa_reg\[17\]
*1191 div\.opa_reg\[18\]
*1192 div\.opa_reg\[19\]
*1193 div\.opa_reg\[1\]
*1194 div\.opa_reg\[20\]
*1195 div\.opa_reg\[21\]
*1196 div\.opa_reg\[22\]
*1197 div\.opa_reg\[23\]
*1198 div\.opa_reg\[24\]
*1199 div\.opa_reg\[25\]
*1200 div\.opa_reg\[26\]
*1201 div\.opa_reg\[27\]
*1202 div\.opa_reg\[28\]
*1203 div\.opa_reg\[29\]
*1204 div\.opa_reg\[2\]
*1205 div\.opa_reg\[30\]
*1206 div\.opa_reg\[3\]
*1207 div\.opa_reg\[4\]
*1208 div\.opa_reg\[5\]
*1209 div\.opa_reg\[6\]
*1210 div\.opa_reg\[7\]
*1211 div\.opa_reg\[8\]
*1212 div\.opa_reg\[9\]
*1213 div\.opb_reg\[0\]
*1214 div\.opb_reg\[10\]
*1215 div\.opb_reg\[11\]
*1216 div\.opb_reg\[12\]
*1217 div\.opb_reg\[13\]
*1218 div\.opb_reg\[14\]
*1219 div\.opb_reg\[15\]
*1220 div\.opb_reg\[16\]
*1221 div\.opb_reg\[17\]
*1222 div\.opb_reg\[18\]
*1223 div\.opb_reg\[19\]
*1224 div\.opb_reg\[1\]
*1225 div\.opb_reg\[20\]
*1226 div\.opb_reg\[21\]
*1227 div\.opb_reg\[22\]
*1228 div\.opb_reg\[23\]
*1229 div\.opb_reg\[24\]
*1230 div\.opb_reg\[25\]
*1231 div\.opb_reg\[26\]
*1232 div\.opb_reg\[27\]
*1233 div\.opb_reg\[28\]
*1234 div\.opb_reg\[29\]
*1235 div\.opb_reg\[2\]
*1236 div\.opb_reg\[30\]
*1237 div\.opb_reg\[3\]
*1238 div\.opb_reg\[4\]
*1239 div\.opb_reg\[5\]
*1240 div\.opb_reg\[6\]
*1241 div\.opb_reg\[7\]
*1242 div\.opb_reg\[8\]
*1243 div\.opb_reg\[9\]
*1244 div\.ostream_rdy
*1245 div\.ostream_val
*1246 div\.state_curr\[2\]
*1247 div\.state_curr\[3\]
*1248 div\.state_curr\[4\]
*1249 fsm\.done
*1250 fsm\.is_prime
*1251 fsm\.state_curr\[0\]
*1252 fsm\.state_curr\[4\]
*1253 net1
*1254 net15
*1255 net16
*1256 net17
*1257 net2
*1258 net3
*1259 net4
*1260 net5
*1261 net6
*1262 net7
*1263 net8
*1264 net9
*1265 reset1
*1266 sipo\.REGISTER\[0\]\.sipo_reg\.out
*1267 sipo\.REGISTER\[10\]\.sipo_reg\.in
*1268 sipo\.REGISTER\[10\]\.sipo_reg\.out
*1269 sipo\.REGISTER\[11\]\.sipo_reg\.out
*1270 sipo\.REGISTER\[12\]\.sipo_reg\.out
*1271 sipo\.REGISTER\[13\]\.sipo_reg\.out
*1272 sipo\.REGISTER\[14\]\.sipo_reg\.out
*1273 sipo\.REGISTER\[15\]\.sipo_reg\.out
*1274 sipo\.REGISTER\[16\]\.sipo_reg\.out
*1275 sipo\.REGISTER\[17\]\.sipo_reg\.out
*1276 sipo\.REGISTER\[18\]\.sipo_reg\.out
*1277 sipo\.REGISTER\[19\]\.sipo_reg\.out
*1278 sipo\.REGISTER\[1\]\.sipo_reg\.out
*1279 sipo\.REGISTER\[20\]\.sipo_reg\.out
*1280 sipo\.REGISTER\[21\]\.sipo_reg\.out
*1281 sipo\.REGISTER\[22\]\.sipo_reg\.out
*1282 sipo\.REGISTER\[23\]\.sipo_reg\.out
*1283 sipo\.REGISTER\[24\]\.sipo_reg\.out
*1284 sipo\.REGISTER\[25\]\.sipo_reg\.out
*1285 sipo\.REGISTER\[26\]\.sipo_reg\.out
*1286 sipo\.REGISTER\[27\]\.sipo_reg\.out
*1287 sipo\.REGISTER\[28\]\.sipo_reg\.out
*1288 sipo\.REGISTER\[29\]\.sipo_reg\.out
*1289 sipo\.REGISTER\[2\]\.sipo_reg\.out
*1290 sipo\.REGISTER\[30\]\.sipo_reg\.out
*1291 sipo\.REGISTER\[3\]\.sipo_reg\.out
*1292 sipo\.REGISTER\[4\]\.sipo_reg\.out
*1293 sipo\.REGISTER\[5\]\.sipo_reg\.out
*1294 sipo\.REGISTER\[6\]\.sipo_reg\.out
*1295 sipo\.REGISTER\[7\]\.sipo_reg\.out
*1296 sipo\.REGISTER\[8\]\.sipo_reg\.out
*1297 ANTENNA_1
*1298 ANTENNA_2
*1299 ANTENNA_3
*1300 ANTENNA_4
*1301 FILLER_0_104
*1302 FILLER_0_113
*1303 FILLER_0_117
*1304 FILLER_0_126
*1305 FILLER_0_133
*1306 FILLER_0_139
*1307 FILLER_0_141
*1308 FILLER_0_147
*1309 FILLER_0_164
*1310 FILLER_0_169
*1311 FILLER_0_178
*1312 FILLER_0_191
*1313 FILLER_0_195
*1314 FILLER_0_197
*1315 FILLER_0_202
*1316 FILLER_0_206
*1317 FILLER_0_21
*1318 FILLER_0_214
*1319 FILLER_0_221
*1320 FILLER_0_225
*1321 FILLER_0_232
*1322 FILLER_0_241
*1323 FILLER_0_248
*1324 FILLER_0_253
*1325 FILLER_0_258
*1326 FILLER_0_265
*1327 FILLER_0_27
*1328 FILLER_0_272
*1329 FILLER_0_281
*1330 FILLER_0_29
*1331 FILLER_0_293
*1332 FILLER_0_3
*1333 FILLER_0_44
*1334 FILLER_0_51
*1335 FILLER_0_55
*1336 FILLER_0_57
*1337 FILLER_0_64
*1338 FILLER_0_72
*1339 FILLER_0_78
*1340 FILLER_0_82
*1341 FILLER_0_85
*1342 FILLER_10_100
*1343 FILLER_10_110
*1344 FILLER_10_117
*1345 FILLER_10_138
*1346 FILLER_10_141
*1347 FILLER_10_146
*1348 FILLER_10_152
*1349 FILLER_10_16
*1350 FILLER_10_160
*1351 FILLER_10_167
*1352 FILLER_10_177
*1353 FILLER_10_185
*1354 FILLER_10_194
*1355 FILLER_10_197
*1356 FILLER_10_203
*1357 FILLER_10_215
*1358 FILLER_10_222
*1359 FILLER_10_232
*1360 FILLER_10_236
*1361 FILLER_10_243
*1362 FILLER_10_250
*1363 FILLER_10_253
*1364 FILLER_10_26
*1365 FILLER_10_268
*1366 FILLER_10_276
*1367 FILLER_10_284
*1368 FILLER_10_29
*1369 FILLER_10_291
*1370 FILLER_10_3
*1371 FILLER_10_44
*1372 FILLER_10_48
*1373 FILLER_10_65
*1374 FILLER_10_73
*1375 FILLER_10_8
*1376 FILLER_10_82
*1377 FILLER_10_85
*1378 FILLER_10_89
*1379 FILLER_10_96
*1380 FILLER_11_100
*1381 FILLER_11_108
*1382 FILLER_11_113
*1383 FILLER_11_127
*1384 FILLER_11_134
*1385 FILLER_11_146
*1386 FILLER_11_152
*1387 FILLER_11_157
*1388 FILLER_11_166
*1389 FILLER_11_169
*1390 FILLER_11_178
*1391 FILLER_11_185
*1392 FILLER_11_205
*1393 FILLER_11_21
*1394 FILLER_11_218
*1395 FILLER_11_225
*1396 FILLER_11_236
*1397 FILLER_11_248
*1398 FILLER_11_256
*1399 FILLER_11_264
*1400 FILLER_11_272
*1401 FILLER_11_278
*1402 FILLER_11_281
*1403 FILLER_11_289
*1404 FILLER_11_296
*1405 FILLER_11_3
*1406 FILLER_11_33
*1407 FILLER_11_41
*1408 FILLER_11_46
*1409 FILLER_11_54
*1410 FILLER_11_57
*1411 FILLER_11_73
*1412 FILLER_11_85
*1413 FILLER_11_94
*1414 FILLER_12_110
*1415 FILLER_12_118
*1416 FILLER_12_127
*1417 FILLER_12_138
*1418 FILLER_12_141
*1419 FILLER_12_16
*1420 FILLER_12_162
*1421 FILLER_12_170
*1422 FILLER_12_179
*1423 FILLER_12_189
*1424 FILLER_12_195
*1425 FILLER_12_197
*1426 FILLER_12_213
*1427 FILLER_12_225
*1428 FILLER_12_23
*1429 FILLER_12_233
*1430 FILLER_12_250
*1431 FILLER_12_253
*1432 FILLER_12_258
*1433 FILLER_12_269
*1434 FILLER_12_27
*1435 FILLER_12_277
*1436 FILLER_12_286
*1437 FILLER_12_29
*1438 FILLER_12_297
*1439 FILLER_12_3
*1440 FILLER_12_48
*1441 FILLER_12_58
*1442 FILLER_12_70
*1443 FILLER_12_82
*1444 FILLER_12_85
*1445 FILLER_12_9
*1446 FILLER_12_99
*1447 FILLER_13_100
*1448 FILLER_13_106
*1449 FILLER_13_110
*1450 FILLER_13_113
*1451 FILLER_13_134
*1452 FILLER_13_138
*1453 FILLER_13_142
*1454 FILLER_13_157
*1455 FILLER_13_166
*1456 FILLER_13_169
*1457 FILLER_13_182
*1458 FILLER_13_202
*1459 FILLER_13_214
*1460 FILLER_13_22
*1461 FILLER_13_222
*1462 FILLER_13_225
*1463 FILLER_13_236
*1464 FILLER_13_244
*1465 FILLER_13_252
*1466 FILLER_13_268
*1467 FILLER_13_277
*1468 FILLER_13_281
*1469 FILLER_13_288
*1470 FILLER_13_297
*1471 FILLER_13_3
*1472 FILLER_13_32
*1473 FILLER_13_43
*1474 FILLER_13_52
*1475 FILLER_13_57
*1476 FILLER_13_65
*1477 FILLER_13_71
*1478 FILLER_13_78
*1479 FILLER_13_82
*1480 FILLER_13_92
*1481 FILLER_14_111
*1482 FILLER_14_118
*1483 FILLER_14_12
*1484 FILLER_14_129
*1485 FILLER_14_136
*1486 FILLER_14_141
*1487 FILLER_14_158
*1488 FILLER_14_17
*1489 FILLER_14_170
*1490 FILLER_14_180
*1491 FILLER_14_190
*1492 FILLER_14_197
*1493 FILLER_14_203
*1494 FILLER_14_21
*1495 FILLER_14_211
*1496 FILLER_14_220
*1497 FILLER_14_232
*1498 FILLER_14_243
*1499 FILLER_14_250
*1500 FILLER_14_253
*1501 FILLER_14_26
*1502 FILLER_14_262
*1503 FILLER_14_273
*1504 FILLER_14_279
*1505 FILLER_14_285
*1506 FILLER_14_29
*1507 FILLER_14_295
*1508 FILLER_14_3
*1509 FILLER_14_38
*1510 FILLER_14_46
*1511 FILLER_14_63
*1512 FILLER_14_78
*1513 FILLER_14_8
*1514 FILLER_14_85
*1515 FILLER_14_96
*1516 FILLER_15_10
*1517 FILLER_15_102
*1518 FILLER_15_110
*1519 FILLER_15_113
*1520 FILLER_15_119
*1521 FILLER_15_132
*1522 FILLER_15_143
*1523 FILLER_15_156
*1524 FILLER_15_166
*1525 FILLER_15_169
*1526 FILLER_15_173
*1527 FILLER_15_182
*1528 FILLER_15_188
*1529 FILLER_15_205
*1530 FILLER_15_21
*1531 FILLER_15_215
*1532 FILLER_15_222
*1533 FILLER_15_225
*1534 FILLER_15_239
*1535 FILLER_15_247
*1536 FILLER_15_255
*1537 FILLER_15_263
*1538 FILLER_15_273
*1539 FILLER_15_279
*1540 FILLER_15_281
*1541 FILLER_15_289
*1542 FILLER_15_29
*1543 FILLER_15_296
*1544 FILLER_15_3
*1545 FILLER_15_33
*1546 FILLER_15_51
*1547 FILLER_15_55
*1548 FILLER_15_57
*1549 FILLER_15_70
*1550 FILLER_15_82
*1551 FILLER_15_88
*1552 FILLER_15_98
*1553 FILLER_16_106
*1554 FILLER_16_116
*1555 FILLER_16_120
*1556 FILLER_16_138
*1557 FILLER_16_141
*1558 FILLER_16_146
*1559 FILLER_16_154
*1560 FILLER_16_167
*1561 FILLER_16_187
*1562 FILLER_16_194
*1563 FILLER_16_197
*1564 FILLER_16_205
*1565 FILLER_16_213
*1566 FILLER_16_22
*1567 FILLER_16_223
*1568 FILLER_16_236
*1569 FILLER_16_245
*1570 FILLER_16_251
*1571 FILLER_16_253
*1572 FILLER_16_259
*1573 FILLER_16_265
*1574 FILLER_16_273
*1575 FILLER_16_277
*1576 FILLER_16_285
*1577 FILLER_16_29
*1578 FILLER_16_297
*1579 FILLER_16_3
*1580 FILLER_16_36
*1581 FILLER_16_43
*1582 FILLER_16_51
*1583 FILLER_16_68
*1584 FILLER_16_80
*1585 FILLER_16_85
*1586 FILLER_16_95
*1587 FILLER_17_102
*1588 FILLER_17_110
*1589 FILLER_17_113
*1590 FILLER_17_12
*1591 FILLER_17_121
*1592 FILLER_17_127
*1593 FILLER_17_131
*1594 FILLER_17_138
*1595 FILLER_17_150
*1596 FILLER_17_163
*1597 FILLER_17_167
*1598 FILLER_17_169
*1599 FILLER_17_183
*1600 FILLER_17_20
*1601 FILLER_17_203
*1602 FILLER_17_220
*1603 FILLER_17_225
*1604 FILLER_17_231
*1605 FILLER_17_240
*1606 FILLER_17_247
*1607 FILLER_17_254
*1608 FILLER_17_265
*1609 FILLER_17_272
*1610 FILLER_17_281
*1611 FILLER_17_291
*1612 FILLER_17_3
*1613 FILLER_17_31
*1614 FILLER_17_52
*1615 FILLER_17_57
*1616 FILLER_17_65
*1617 FILLER_17_85
*1618 FILLER_17_98
*1619 FILLER_18_106
*1620 FILLER_18_118
*1621 FILLER_18_122
*1622 FILLER_18_127
*1623 FILLER_18_138
*1624 FILLER_18_141
*1625 FILLER_18_147
*1626 FILLER_18_160
*1627 FILLER_18_172
*1628 FILLER_18_179
*1629 FILLER_18_18
*1630 FILLER_18_194
*1631 FILLER_18_197
*1632 FILLER_18_210
*1633 FILLER_18_219
*1634 FILLER_18_226
*1635 FILLER_18_250
*1636 FILLER_18_253
*1637 FILLER_18_26
*1638 FILLER_18_265
*1639 FILLER_18_273
*1640 FILLER_18_278
*1641 FILLER_18_289
*1642 FILLER_18_29
*1643 FILLER_18_296
*1644 FILLER_18_3
*1645 FILLER_18_33
*1646 FILLER_18_39
*1647 FILLER_18_54
*1648 FILLER_18_64
*1649 FILLER_18_72
*1650 FILLER_18_78
*1651 FILLER_18_82
*1652 FILLER_18_85
*1653 FILLER_18_9
*1654 FILLER_18_94
*1655 FILLER_19_104
*1656 FILLER_19_113
*1657 FILLER_19_125
*1658 FILLER_19_137
*1659 FILLER_19_149
*1660 FILLER_19_155
*1661 FILLER_19_163
*1662 FILLER_19_167
*1663 FILLER_19_169
*1664 FILLER_19_180
*1665 FILLER_19_201
*1666 FILLER_19_205
*1667 FILLER_19_222
*1668 FILLER_19_225
*1669 FILLER_19_233
*1670 FILLER_19_240
*1671 FILLER_19_247
*1672 FILLER_19_253
*1673 FILLER_19_262
*1674 FILLER_19_273
*1675 FILLER_19_279
*1676 FILLER_19_281
*1677 FILLER_19_290
*1678 FILLER_19_297
*1679 FILLER_19_3
*1680 FILLER_19_30
*1681 FILLER_19_38
*1682 FILLER_19_42
*1683 FILLER_19_54
*1684 FILLER_19_57
*1685 FILLER_19_65
*1686 FILLER_19_79
*1687 FILLER_19_9
*1688 FILLER_19_90
*1689 FILLER_19_97
*1690 FILLER_1_110
*1691 FILLER_1_113
*1692 FILLER_1_133
*1693 FILLER_1_14
*1694 FILLER_1_156
*1695 FILLER_1_165
*1696 FILLER_1_169
*1697 FILLER_1_178
*1698 FILLER_1_184
*1699 FILLER_1_201
*1700 FILLER_1_208
*1701 FILLER_1_212
*1702 FILLER_1_222
*1703 FILLER_1_225
*1704 FILLER_1_230
*1705 FILLER_1_234
*1706 FILLER_1_251
*1707 FILLER_1_259
*1708 FILLER_1_268
*1709 FILLER_1_275
*1710 FILLER_1_279
*1711 FILLER_1_281
*1712 FILLER_1_286
*1713 FILLER_1_298
*1714 FILLER_1_3
*1715 FILLER_1_34
*1716 FILLER_1_54
*1717 FILLER_1_57
*1718 FILLER_1_62
*1719 FILLER_1_82
*1720 FILLER_1_86
*1721 FILLER_1_90
*1722 FILLER_20_105
*1723 FILLER_20_117
*1724 FILLER_20_126
*1725 FILLER_20_138
*1726 FILLER_20_141
*1727 FILLER_20_150
*1728 FILLER_20_165
*1729 FILLER_20_172
*1730 FILLER_20_176
*1731 FILLER_20_185
*1732 FILLER_20_189
*1733 FILLER_20_194
*1734 FILLER_20_197
*1735 FILLER_20_21
*1736 FILLER_20_215
*1737 FILLER_20_228
*1738 FILLER_20_240
*1739 FILLER_20_246
*1740 FILLER_20_250
*1741 FILLER_20_253
*1742 FILLER_20_266
*1743 FILLER_20_27
*1744 FILLER_20_273
*1745 FILLER_20_287
*1746 FILLER_20_29
*1747 FILLER_20_294
*1748 FILLER_20_298
*1749 FILLER_20_3
*1750 FILLER_20_48
*1751 FILLER_20_54
*1752 FILLER_20_62
*1753 FILLER_20_82
*1754 FILLER_20_85
*1755 FILLER_20_89
*1756 FILLER_20_97
*1757 FILLER_21_108
*1758 FILLER_21_113
*1759 FILLER_21_128
*1760 FILLER_21_138
*1761 FILLER_21_150
*1762 FILLER_21_158
*1763 FILLER_21_166
*1764 FILLER_21_169
*1765 FILLER_21_181
*1766 FILLER_21_202
*1767 FILLER_21_208
*1768 FILLER_21_218
*1769 FILLER_21_22
*1770 FILLER_21_225
*1771 FILLER_21_249
*1772 FILLER_21_259
*1773 FILLER_21_269
*1774 FILLER_21_276
*1775 FILLER_21_281
*1776 FILLER_21_287
*1777 FILLER_21_295
*1778 FILLER_21_3
*1779 FILLER_21_34
*1780 FILLER_21_45
*1781 FILLER_21_54
*1782 FILLER_21_57
*1783 FILLER_21_65
*1784 FILLER_21_76
*1785 FILLER_21_84
*1786 FILLER_21_90
*1787 FILLER_21_97
*1788 FILLER_22_104
*1789 FILLER_22_115
*1790 FILLER_22_123
*1791 FILLER_22_133
*1792 FILLER_22_139
*1793 FILLER_22_141
*1794 FILLER_22_151
*1795 FILLER_22_157
*1796 FILLER_22_165
*1797 FILLER_22_176
*1798 FILLER_22_186
*1799 FILLER_22_194
*1800 FILLER_22_197
*1801 FILLER_22_20
*1802 FILLER_22_219
*1803 FILLER_22_232
*1804 FILLER_22_236
*1805 FILLER_22_243
*1806 FILLER_22_250
*1807 FILLER_22_253
*1808 FILLER_22_261
*1809 FILLER_22_275
*1810 FILLER_22_279
*1811 FILLER_22_287
*1812 FILLER_22_29
*1813 FILLER_22_297
*1814 FILLER_22_3
*1815 FILLER_22_37
*1816 FILLER_22_45
*1817 FILLER_22_57
*1818 FILLER_22_69
*1819 FILLER_22_8
*1820 FILLER_22_81
*1821 FILLER_22_85
*1822 FILLER_22_95
*1823 FILLER_23_102
*1824 FILLER_23_110
*1825 FILLER_23_113
*1826 FILLER_23_119
*1827 FILLER_23_129
*1828 FILLER_23_137
*1829 FILLER_23_147
*1830 FILLER_23_159
*1831 FILLER_23_166
*1832 FILLER_23_169
*1833 FILLER_23_181
*1834 FILLER_23_204
*1835 FILLER_23_21
*1836 FILLER_23_211
*1837 FILLER_23_222
*1838 FILLER_23_225
*1839 FILLER_23_230
*1840 FILLER_23_236
*1841 FILLER_23_245
*1842 FILLER_23_254
*1843 FILLER_23_262
*1844 FILLER_23_268
*1845 FILLER_23_275
*1846 FILLER_23_279
*1847 FILLER_23_281
*1848 FILLER_23_291
*1849 FILLER_23_3
*1850 FILLER_23_30
*1851 FILLER_23_34
*1852 FILLER_23_52
*1853 FILLER_23_57
*1854 FILLER_23_76
*1855 FILLER_23_98
*1856 FILLER_24_105
*1857 FILLER_24_111
*1858 FILLER_24_119
*1859 FILLER_24_131
*1860 FILLER_24_138
*1861 FILLER_24_141
*1862 FILLER_24_150
*1863 FILLER_24_158
*1864 FILLER_24_168
*1865 FILLER_24_176
*1866 FILLER_24_18
*1867 FILLER_24_185
*1868 FILLER_24_193
*1869 FILLER_24_197