*SPEF "ieee 1481-1999"
*DESIGN "algofoogle_product"
*DATE "11:11:11 Fri 11 11, 1111"
*VENDOR "OpenRCX"
*PROGRAM "Parallel Extraction"
*VERSION "1.0"
*DESIGN_FLOW "NAME_SCOPE LOCAL" "PIN_CAP NONE"
*DIVIDER /
*DELIMITER :
*BUS_DELIMITER []
*T_UNIT 1 NS
*C_UNIT 1 PF
*R_UNIT 1 OHM
*L_UNIT 1 HENRY

*NAME_MAP
*1 io_in[0]
*2 io_in[1]
*3 io_in[2]
*4 io_in[3]
*5 io_in[4]
*6 io_in[5]
*7 io_in[6]
*8 io_in[7]
*9 io_out[0]
*10 io_out[1]
*11 io_out[2]
*12 io_out[3]
*13 io_out[4]
*14 io_out[5]
*15 io_out[6]
*16 io_out[7]
*19 _000_
*20 _001_
*21 _002_
*22 _003_
*23 _004_
*24 _005_
*25 _006_
*26 _007_
*27 _008_
*28 _009_
*29 _010_
*30 _011_
*31 _012_
*32 _013_
*33 _014_
*34 _015_
*35 _016_
*36 _017_
*37 _018_
*38 _019_
*39 _020_
*40 _021_
*41 _022_
*42 _023_
*43 _024_
*44 _025_
*45 _026_
*46 _027_
*47 _028_
*48 _029_
*49 _030_
*50 _031_
*51 _032_
*52 _033_
*53 _034_
*54 _035_
*55 _036_
*56 _037_
*57 _038_
*58 _039_
*59 _040_
*60 _041_
*61 _042_
*62 _043_
*63 _044_
*64 _045_
*65 _046_
*66 _047_
*67 _048_
*68 _049_
*69 _050_
*70 _051_
*71 _052_
*72 _053_
*73 _054_
*74 _055_
*75 _056_
*76 _057_
*77 _058_
*78 _059_
*79 _060_
*80 _061_
*81 _062_
*82 _063_
*83 _064_
*84 _065_
*85 _066_
*86 _067_
*87 _068_
*88 _069_
*89 _070_
*90 _071_
*91 _072_
*92 _073_
*93 _074_
*94 _075_
*95 _076_
*96 _077_
*97 _078_
*98 _079_
*99 _080_
*100 _081_
*101 _082_
*102 _083_
*103 _084_
*104 _085_
*105 _086_
*106 _087_
*107 _088_
*108 _089_
*109 _090_
*110 _091_
*111 _092_
*112 _093_
*113 _094_
*114 _095_
*115 _096_
*116 _097_
*117 _098_
*118 _099_
*119 _100_
*120 _101_
*121 _102_
*122 _103_
*123 _104_
*124 _105_
*125 _106_
*126 _107_
*127 _108_
*128 _109_
*129 _110_
*130 _111_
*131 _112_
*132 _113_
*133 _114_
*134 _115_
*135 _116_
*136 _117_
*137 _118_
*138 _119_
*139 _120_
*140 _121_
*141 _122_
*142 _123_
*143 _124_
*144 _125_
*145 _126_
*146 _127_
*147 _128_
*148 _129_
*149 _130_
*150 _131_
*151 _132_
*152 _133_
*153 _134_
*154 _135_
*155 _136_
*156 _137_
*157 _138_
*158 _139_
*159 _140_
*160 _141_
*161 _142_
*162 _143_
*163 _144_
*164 _145_
*165 _146_
*166 _147_
*167 _148_
*168 _149_
*169 _150_
*170 _151_
*171 _152_
*172 _153_
*173 _154_
*174 _155_
*175 _156_
*176 _157_
*177 _158_
*178 _159_
*179 _160_
*180 _161_
*181 _162_
*182 _163_
*183 _164_
*184 _165_
*185 _166_
*186 _167_
*187 _168_
*188 _169_
*189 _170_
*190 _171_
*191 _172_
*192 _173_
*193 _174_
*194 _175_
*195 _176_
*196 _177_
*197 _178_
*198 _179_
*199 _180_
*200 _181_
*201 _182_
*202 _183_
*203 _184_
*204 _185_
*205 _186_
*206 _187_
*207 _188_
*208 _189_
*209 _190_
*210 _191_
*211 _192_
*212 _193_
*213 _194_
*214 _195_
*215 _196_
*216 _197_
*217 _198_
*218 _199_
*219 _200_
*220 _201_
*221 _202_
*222 _203_
*223 _204_
*224 _205_
*225 _206_
*226 _207_
*227 _208_
*228 _209_
*229 _210_
*230 _211_
*231 _212_
*232 _213_
*233 _214_
*234 _215_
*235 _216_
*236 _217_
*237 _218_
*238 _219_
*239 _220_
*240 _221_
*241 _222_
*242 _223_
*243 _224_
*244 _225_
*245 _226_
*246 _227_
*247 _228_
*248 _229_
*249 _230_
*250 _231_
*251 _232_
*252 _233_
*253 _234_
*254 _235_
*255 _236_
*256 _237_
*257 _238_
*258 _239_
*259 _240_
*260 _241_
*261 _242_
*262 _243_
*263 _244_
*264 _245_
*265 _246_
*266 _247_
*267 _248_
*268 _249_
*269 _250_
*270 _251_
*271 _252_
*272 _253_
*273 _254_
*274 _255_
*275 _256_
*276 _257_
*277 _258_
*278 _259_
*279 _260_
*280 _261_
*281 _262_
*282 _263_
*283 _264_
*284 _265_
*285 _266_
*286 _267_
*287 _268_
*288 _269_
*289 _270_
*290 _271_
*291 _272_
*292 _273_
*293 _274_
*294 _275_
*295 _276_
*296 _277_
*297 _278_
*298 _279_
*299 _280_
*300 _281_
*301 _282_
*302 _283_
*303 _284_
*304 _285_
*305 _286_
*306 _287_
*307 _288_
*308 _289_
*309 _290_
*310 _291_
*311 _292_
*312 _293_
*313 _294_
*314 _295_
*315 _296_
*316 _297_
*317 _298_
*318 _299_
*319 _300_
*320 _301_
*321 _302_
*322 _303_
*323 _304_
*324 _305_
*325 _306_
*326 _307_
*327 _308_
*328 _309_
*329 _310_
*330 _311_
*331 _312_
*332 _313_
*333 _314_
*334 _315_
*335 _316_
*336 _317_
*337 _318_
*338 _319_
*339 _320_
*340 _321_
*341 _322_
*342 _323_
*343 _324_
*344 _325_
*345 _326_
*346 _327_
*347 _328_
*348 _329_
*349 _330_
*350 _331_
*351 _332_
*352 _333_
*353 _334_
*354 _335_
*355 _336_
*356 _337_
*357 _338_
*358 _339_
*359 _340_
*360 _341_
*361 _342_
*362 _343_
*363 _344_
*364 _345_
*365 _346_
*366 _347_
*367 _348_
*368 _349_
*369 _350_
*370 _351_
*371 _352_
*372 _353_
*373 _354_
*374 _355_
*375 _356_
*376 _357_
*377 _358_
*378 _359_
*379 _360_
*380 _361_
*381 _362_
*382 _363_
*383 _364_
*384 _365_
*385 _366_
*386 _367_
*387 _368_
*388 _369_
*389 _370_
*390 _371_
*391 _372_
*392 _373_
*393 _374_
*394 _375_
*395 _376_
*396 _377_
*397 _378_
*398 _379_
*399 _380_
*400 clknet_0_io_in[0]
*401 clknet_1_0__leaf_io_in[0]
*402 clknet_1_1__leaf_io_in[0]
*403 net1
*404 net2
*405 net3
*406 net4
*407 net5
*408 net6
*409 product\[0\]
*410 product\[10\]
*411 product\[11\]
*412 product\[12\]
*413 product\[13\]
*414 product\[14\]
*415 product\[15\]
*416 product\[1\]
*417 product\[2\]
*418 product\[3\]
*419 product\[4\]
*420 product\[5\]
*421 product\[6\]
*422 product\[7\]
*423 product\[8\]
*424 product\[9\]
*425 state\[0\]
*426 state\[1\]
*427 state\[2\]
*428 FILLER_0_109
*429 FILLER_0_113
*430 FILLER_0_125
*431 FILLER_0_137
*432 FILLER_0_141
*433 FILLER_0_153
*434 FILLER_0_165
*435 FILLER_0_169
*436 FILLER_0_181
*437 FILLER_0_193
*438 FILLER_0_197
*439 FILLER_0_209
*440 FILLER_0_22
*441 FILLER_0_221
*442 FILLER_0_225
*443 FILLER_0_237
*444 FILLER_0_249
*445 FILLER_0_253
*446 FILLER_0_265
*447 FILLER_0_277
*448 FILLER_0_281
*449 FILLER_0_29
*450 FILLER_0_293
*451 FILLER_0_3
*452 FILLER_0_48
*453 FILLER_0_57
*454 FILLER_0_76
*455 FILLER_0_85
*456 FILLER_0_97
*457 FILLER_10_104
*458 FILLER_10_116
*459 FILLER_10_128
*460 FILLER_10_141
*461 FILLER_10_15
*462 FILLER_10_153
*463 FILLER_10_165
*464 FILLER_10_177
*465 FILLER_10_189
*466 FILLER_10_195
*467 FILLER_10_197
*468 FILLER_10_209
*469 FILLER_10_221
*470 FILLER_10_233
*471 FILLER_10_245
*472 FILLER_10_251
*473 FILLER_10_253
*474 FILLER_10_265
*475 FILLER_10_27
*476 FILLER_10_277
*477 FILLER_10_289
*478 FILLER_10_29
*479 FILLER_10_297
*480 FILLER_10_3
*481 FILLER_10_37
*482 FILLER_10_41
*483 FILLER_10_50
*484 FILLER_10_62
*485 FILLER_10_74
*486 FILLER_10_82
*487 FILLER_10_85
*488 FILLER_10_92
*489 FILLER_11_100
*490 FILLER_11_113
*491 FILLER_11_125
*492 FILLER_11_137
*493 FILLER_11_149
*494 FILLER_11_15
*495 FILLER_11_161
*496 FILLER_11_167
*497 FILLER_11_169
*498 FILLER_11_181
*499 FILLER_11_193
*500 FILLER_11_205
*501 FILLER_11_217
*502 FILLER_11_223
*503 FILLER_11_225
*504 FILLER_11_23
*505 FILLER_11_237
*506 FILLER_11_249
*507 FILLER_11_261
*508 FILLER_11_273
*509 FILLER_11_279
*510 FILLER_11_281
*511 FILLER_11_29
*512 FILLER_11_293
*513 FILLER_11_3
*514 FILLER_11_38
*515 FILLER_11_48
*516 FILLER_11_57
*517 FILLER_11_66
*518 FILLER_11_70
*519 FILLER_11_76
*520 FILLER_11_88
*521 FILLER_12_109
*522 FILLER_12_121
*523 FILLER_12_133
*524 FILLER_12_139
*525 FILLER_12_141
*526 FILLER_12_153
*527 FILLER_12_165
*528 FILLER_12_177
*529 FILLER_12_189
*530 FILLER_12_195
*531 FILLER_12_197
*532 FILLER_12_209
*533 FILLER_12_221
*534 FILLER_12_233
*535 FILLER_12_245
*536 FILLER_12_25
*537 FILLER_12_251
*538 FILLER_12_253
*539 FILLER_12_265
*540 FILLER_12_277
*541 FILLER_12_289
*542 FILLER_12_29
*543 FILLER_12_297
*544 FILLER_12_3
*545 FILLER_12_33
*546 FILLER_12_42
*547 FILLER_12_54
*548 FILLER_12_62
*549 FILLER_12_74
*550 FILLER_12_8
*551 FILLER_12_82
*552 FILLER_12_85
*553 FILLER_12_97
*554 FILLER_13_105
*555 FILLER_13_111
*556 FILLER_13_113
*557 FILLER_13_125
*558 FILLER_13_137
*559 FILLER_13_14
*560 FILLER_13_149
*561 FILLER_13_161
*562 FILLER_13_167
*563 FILLER_13_169
*564 FILLER_13_181
*565 FILLER_13_193
*566 FILLER_13_205
*567 FILLER_13_217
*568 FILLER_13_223
*569 FILLER_13_225
*570 FILLER_13_237
*571 FILLER_13_249
*572 FILLER_13_26
*573 FILLER_13_261
*574 FILLER_13_273
*575 FILLER_13_279
*576 FILLER_13_281
*577 FILLER_13_293
*578 FILLER_13_3
*579 FILLER_13_32
*580 FILLER_13_37
*581 FILLER_13_49
*582 FILLER_13_55
*583 FILLER_13_57
*584 FILLER_13_67
*585 FILLER_13_79
*586 FILLER_13_93
*587 FILLER_14_109
*588 FILLER_14_121
*589 FILLER_14_13
*590 FILLER_14_133
*591 FILLER_14_139
*592 FILLER_14_141
*593 FILLER_14_153
*594 FILLER_14_165
*595 FILLER_14_17
*596 FILLER_14_177
*597 FILLER_14_189
*598 FILLER_14_195
*599 FILLER_14_197
*600 FILLER_14_209
*601 FILLER_14_221
*602 FILLER_14_23
*603 FILLER_14_233
*604 FILLER_14_245
*605 FILLER_14_251
*606 FILLER_14_253
*607 FILLER_14_265
*608 FILLER_14_27
*609 FILLER_14_277
*610 FILLER_14_289
*611 FILLER_14_29
*612 FILLER_14_297
*613 FILLER_14_3
*614 FILLER_14_41
*615 FILLER_14_50
*616 FILLER_14_57
*617 FILLER_14_69
*618 FILLER_14_81
*619 FILLER_14_85
*620 FILLER_14_97
*621 FILLER_15_101
*622 FILLER_15_110
*623 FILLER_15_113
*624 FILLER_15_125
*625 FILLER_15_13
*626 FILLER_15_131
*627 FILLER_15_138
*628 FILLER_15_150
*629 FILLER_15_162
*630 FILLER_15_169
*631 FILLER_15_181
*632 FILLER_15_193
*633 FILLER_15_205
*634 FILLER_15_217
*635 FILLER_15_223
*636 FILLER_15_225
*637 FILLER_15_237
*638 FILLER_15_249
*639 FILLER_15_26
*640 FILLER_15_261
*641 FILLER_15_273
*642 FILLER_15_279
*643 FILLER_15_281
*644 FILLER_15_293
*645 FILLER_15_3
*646 FILLER_15_34
*647 FILLER_15_43
*648 FILLER_15_50
*649 FILLER_15_57
*650 FILLER_15_66
*651 FILLER_15_72
*652 FILLER_15_78
*653 FILLER_15_85
*654 FILLER_15_95
*655 FILLER_16_10
*656 FILLER_16_108
*657 FILLER_16_120
*658 FILLER_16_128
*659 FILLER_16_138
*660 FILLER_16_141
*661 FILLER_16_153
*662 FILLER_16_165
*663 FILLER_16_17
*664 FILLER_16_177
*665 FILLER_16_189
*666 FILLER_16_195
*667 FILLER_16_197
*668 FILLER_16_209
*669 FILLER_16_221
*670 FILLER_16_233
*671 FILLER_16_245
*672 FILLER_16_251
*673 FILLER_16_253
*674 FILLER_16_26
*675 FILLER_16_265
*676 FILLER_16_277
*677 FILLER_16_289
*678 FILLER_16_29
*679 FILLER_16_297
*680 FILLER_16_3
*681 FILLER_16_36
*682 FILLER_16_47
*683 FILLER_16_68
*684 FILLER_16_78
*685 FILLER_16_85
*686 FILLER_16_96
*687 FILLER_17_103
*688 FILLER_17_110
*689 FILLER_17_113
*690 FILLER_17_123
*691 FILLER_17_13
*692 FILLER_17_134
*693 FILLER_17_146
*694 FILLER_17_158
*695 FILLER_17_166
*696 FILLER_17_169
*697 FILLER_17_181
*698 FILLER_17_193
*699 FILLER_17_205
*700 FILLER_17_217
*701 FILLER_17_223
*702 FILLER_17_225
*703 FILLER_17_237
*704 FILLER_17_24
*705 FILLER_17_249
*706 FILLER_17_261
*707 FILLER_17_273
*708 FILLER_17_279
*709 FILLER_17_281
*710 FILLER_17_293
*711 FILLER_17_3
*712 FILLER_17_33
*713 FILLER_17_41
*714 FILLER_17_48
*715 FILLER_17_57
*716 FILLER_17_70
*717 FILLER_17_79
*718 FILLER_17_95
*719 FILLER_18_109
*720 FILLER_18_121
*721 FILLER_18_125
*722 FILLER_18_132
*723 FILLER_18_14
*724 FILLER_18_141
*725 FILLER_18_153
*726 FILLER_18_165
*727 FILLER_18_177
*728 FILLER_18_189
*729 FILLER_18_195
*730 FILLER_18_197
*731 FILLER_18_209
*732 FILLER_18_22
*733 FILLER_18_221
*734 FILLER_18_233
*735 FILLER_18_245
*736 FILLER_18_251
*737 FILLER_18_253
*738 FILLER_18_26
*739 FILLER_18_265
*740 FILLER_18_277
*741 FILLER_18_289
*742 FILLER_18_29
*743 FILLER_18_297
*744 FILLER_18_3
*745 FILLER_18_33
*746 FILLER_18_39
*747 FILLER_18_50
*748 FILLER_18_57
*749 FILLER_18_69
*750 FILLER_18_81
*751 FILLER_18_85
*752 FILLER_18_97
*753 FILLER_19_105
*754 FILLER_19_111
*755 FILLER_19_113
*756 FILLER_19_123
*757 FILLER_19_13
*758 FILLER_19_132
*759 FILLER_19_144
*760 FILLER_19_156
*761 FILLER_19_169
*762 FILLER_19_181
*763 FILLER_19_193
*764 FILLER_19_205
*765 FILLER_19_217
*766 FILLER_19_223
*767 FILLER_19_225
*768 FILLER_19_237
*769 FILLER_19_249
*770 FILLER_19_26
*771 FILLER_19_261
*772 FILLER_19_273
*773 FILLER_19_279
*774 FILLER_19_281
*775 FILLER_19_293
*776 FILLER_19_3
*777 FILLER_19_38
*778 FILLER_19_53
*779 FILLER_19_57
*780 FILLER_19_69
*781 FILLER_19_81
*782 FILLER_19_93
*783 FILLER_1_107
*784 FILLER_1_111
*785 FILLER_1_113
*786 FILLER_1_125
*787 FILLER_1_137
*788 FILLER_1_149
*789 FILLER_1_161
*790 FILLER_1_167
*791 FILLER_1_169
*792 FILLER_1_181
*793 FILLER_1_193
*794 FILLER_1_205
*795 FILLER_1_217
*796 FILLER_1_22
*797 FILLER_1_223
*798 FILLER_1_225
*799 FILLER_1_237
*800 FILLER_1_249
*801 FILLER_1_261
*802 FILLER_1_273
*803 FILLER_1_279
*804 FILLER_1_281
*805 FILLER_1_293
*806 FILLER_1_3
*807 FILLER_1_30
*808 FILLER_1_48
*809 FILLER_1_57
*810 FILLER_1_75
*811 FILLER_1_95
*812 FILLER_20_106
*813 FILLER_20_114
*814 FILLER_20_130
*815 FILLER_20_138
*816 FILLER_20_14
*817 FILLER_20_141
*818 FILLER_20_153
*819 FILLER_20_165
*820 FILLER_20_177
*821 FILLER_20_18
*822 FILLER_20_189
*823 FILLER_20_195
*824 FILLER_20_197
*825 FILLER_20_209
*826 FILLER_20_221
*827 FILLER_20_233
*828 FILLER_20_245
*829 FILLER_20_251
*830 FILLER_20_253
*831 FILLER_20_26
*832 FILLER_20_265
*833 FILLER_20_277
*834 FILLER_20_289
*835 FILLER_20_29
*836 FILLER_20_297
*837 FILLER_20_3
*838 FILLER_20_39
*839 FILLER_20_50
*840 FILLER_20_56
*841 FILLER_20_64
*842 FILLER_20_76
*843 FILLER_20_85
*844 FILLER_20_97
*845 FILLER_21_101
*846 FILLER_21_110
*847 FILLER_21_113
*848 FILLER_21_119
*849 FILLER_21_131
*850 FILLER_21_141
*851 FILLER_21_153
*852 FILLER_21_16
*853 FILLER_21_165
*854 FILLER_21_169
*855 FILLER_21_181
*856 FILLER_21_193
*857 FILLER_21_205
*858 FILLER_21_217
*859 FILLER_21_223
*860 FILLER_21_225
*861 FILLER_21_23
*862 FILLER_21_237
*863 FILLER_21_249
*864 FILLER_21_261
*865 FILLER_21_273
*866 FILLER_21_279
*867 FILLER_21_281
*868 FILLER_21_293
*869 FILLER_21_3
*870 FILLER_21_36
*871 FILLER_21_48
*872 FILLER_21_57
*873 FILLER_21_65
*874 FILLER_21_75
*875 FILLER_21_8
*876 FILLER_21_87
*877 FILLER_21_93
*878 FILLER_22_11
*879 FILLER_22_110
*880 FILLER_22_122
*881 FILLER_22_130
*882 FILLER_22_138
*883 FILLER_22_141
*884 FILLER_22_153
*885 FILLER_22_165
*886 FILLER_22_177
*887 FILLER_22_189
*888 FILLER_22_195
*889 FILLER_22_197
*890 FILLER_22_20
*891 FILLER_22_209
*892 FILLER_22_221
*893 FILLER_22_233
*894 FILLER_22_245
*895 FILLER_22_251
*896 FILLER_22_253
*897 FILLER_22_265
*898 FILLER_22_277
*899 FILLER_22_289
*900 FILLER_22_29
*901 FILLER_22_297
*902 FILLER_22_3
*903 FILLER_22_39
*904 FILLER_22_45
*905 FILLER_22_49
*906 FILLER_22_55
*907 FILLER_22_62
*908 FILLER_22_74
*909 FILLER_22_82
*910 FILLER_22_85
*911 FILLER_22_89
*912 FILLER_22_98
*913 FILLER_23_104
*914 FILLER_23_113
*915 FILLER_23_119
*916 FILLER_23_129
*917 FILLER_23_137
*918 FILLER_23_146
*919 FILLER_23_15
*920 FILLER_23_158
*921 FILLER_23_166
*922 FILLER_23_169
*923 FILLER_23_181
*924 FILLER_23_193
*925 FILLER_23_205
*926 FILLER_23_217
*927 FILLER_23_223
*928 FILLER_23_225
*929 FILLER_23_23
*930 FILLER_23_237
*931 FILLER_23_249
*932 FILLER_23_261
*933 FILLER_23_273
*934 FILLER_23_279
*935 FILLER_23_281
*936 FILLER_23_29
*937 FILLER_23_293
*938 FILLER_23_3
*939 FILLER_23_41
*940 FILLER_23_50
*941 FILLER_23_57
*942 FILLER_23_69
*943 FILLER_23_81
*944 FILLER_23_93
*945 FILLER_24_103
*946 FILLER_24_119
*947 FILLER_24_127
*948 FILLER_24_132
*949 FILLER_24_141
*950 FILLER_24_145
*951 FILLER_24_150
*952 FILLER_24_159
*953 FILLER_24_171
*954 FILLER_24_183
*955 FILLER_24_195
*956 FILLER_24_197
*957 FILLER_24_20
*958 FILLER_24_209
*959 FILLER_24_221
*960 FILLER_24_233
*961 FILLER_24_245
*962 FILLER_24_251
*963 FILLER_24_253
*964 FILLER_24_26
*965 FILLER_24_265
*966 FILLER_24_277
*967 FILLER_24_289
*968 FILLER_24_29
*969 FILLER_24_297
*970 FILLER_24_3
*971 FILLER_24_37
*972 FILLER_24_45
*973 FILLER_24_52
*974 FILLER_24_60
*975 FILLER_24_68
*976 FILLER_24_8
*977 FILLER_24_80
*978 FILLER_24_85
*979 FILLER_25_102
*980 FILLER_25_110
*981 FILLER_25_113
*982 FILLER_25_121
*983 FILLER_25_133
*984 FILLER_25_139
*985 FILLER_25_146
*986 FILLER_25_15
*987 FILLER_25_158
*988 FILLER_25_166
*989 FILLER_25_169
*990 FILLER_25_181
*991 FILLER_25_193
*992 FILLER_25_205
*993 FILLER_25_217
*994 FILLER_25_223
*995 FILLER_25_225
*996 FILLER_25_23
*997 FILLER_25_237
*998 FILLER_25_249
*999 FILLER_25_261
*1000 FILLER_25_273
*1001 FILLER_25_279
*1002 FILLER_25_281
*1003 FILLER_25_293
*1004 FILLER_25_3
*1005 FILLER_25_31
*1006 FILLER_25_39
*1007 FILLER_25_48
*1008 FILLER_25_57
*1009 FILLER_25_69
*1010 FILLER_25_78
*1011 FILLER_25_91
*1012 FILLER_26_100
*1013 FILLER_26_113
*1014 FILLER_26_126
*1015 FILLER_26_138
*1016 FILLER_26_141
*1017 FILLER_26_148
*1018 FILLER_26_15
*1019 FILLER_26_156
*1020 FILLER_26_168
*1021 FILLER_26_180
*1022 FILLER_26_192
*1023 FILLER_26_197
*1024 FILLER_26_209
*1025 FILLER_26_221
*1026 FILLER_26_233
*1027 FILLER_26_245
*1028 FILLER_26_251
*1029 FILLER_26_253
*1030 FILLER_26_26
*1031 FILLER_26_265
*1032 FILLER_26_277
*1033 FILLER_26_289
*1034 FILLER_26_29
*1035 FILLER_26_297
*1036 FILLER_26_3
*1037 FILLER_26_36
*1038 FILLER_26_40
*1039 FILLER_26_45
*1040 FILLER_26_56
*1041 FILLER_26_64
*1042 FILLER_26_72
*1043 FILLER_26_80
*1044 FILLER_26_85
*1045 FILLER_26_93
*1046 FILLER_27_102
*1047 FILLER_27_109
*1048 FILLER_27_113
*1049 FILLER_27_123
*1050 FILLER_27_131
*1051 FILLER_27_143
*1052 FILLER_27_157
*1053 FILLER_27_165
*1054 FILLER_27_169
*1055 FILLER_27_181
*1056 FILLER_27_193
*1057 FILLER_27_20
*1058 FILLER_27_205
*1059 FILLER_27_217
*1060 FILLER_27_223
*1061 FILLER_27_225
*1062 FILLER_27_237
*1063 FILLER_27_249
*1064 FILLER_27_261
*1065 FILLER_27_273
*1066 FILLER_27_279
*1067 FILLER_27_281
*1068 FILLER_27_293
*1069 FILLER_27_3
*1070 FILLER_27_33
*1071 FILLER_27_46
*1072 FILLER_27_54
*1073 FILLER_27_57
*1074 FILLER_27_70
*1075 FILLER_27_78
*1076 FILLER_27_8
*1077 FILLER_27_88
*1078 FILLER_28_102
*1079 FILLER_28_11
*1080 FILLER_28_110
*1081 FILLER_28_122
*1082 FILLER_28_130
*1083 FILLER_28_138
*1084 FILLER_28_141
*1085 FILLER_28_147
*1086 FILLER_28_15
*1087 FILLER_28_159
*1088 FILLER_28_171
*1089 FILLER_28_183
*1090 FILLER_28_19
*1091 FILLER_28_195
*1092 FILLER_28_197
*1093 FILLER_28_209
*1094 FILLER_28_221
*1095 FILLER_28_233
*1096 FILLER_28_245
*1097 FILLER_28_251
*1098 FILLER_28_253
*1099 FILLER_28_26
*1100 FILLER_28_265
*1101 FILLER_28_277
*1102 FILLER_28_289
*1103 FILLER_28_29
*1104 FILLER_28_297
*1105 FILLER_28_3
*1106 FILLER_28_37
*1107 FILLER_28_46
*1108 FILLER_28_72
*1109 FILLER_28_76
*1110 FILLER_28_80
*1111 FILLER_28_85
*1112 FILLER_28_94
*1113 FILLER_29_100
*1114 FILLER_29_113
*1115 FILLER_29_121
*1116 FILLER_29_125
*1117 FILLER_29_133
*1118 FILLER_29_149
*1119 FILLER_29_161
*1120 FILLER_29_167
*1121 FILLER_29_169
*1122 FILLER_29_181
*1123 FILLER_29_193
*1124 FILLER_29_205
*1125 FILLER_29_217
*1126 FILLER_29_223
*1127 FILLER_29_225
*1128 FILLER_29_237
*1129 FILLER_29_24
*1130 FILLER_29_249
*1131 FILLER_29_261
*1132 FILLER_29_273
*1133 FILLER_29_279
*1134 FILLER_29_281
*1135 FILLER_29_293
*1136 FILLER_29_3
*1137 FILLER_29_41
*1138 FILLER_29_51
*1139 FILLER_29_55
*1140 FILLER_29_57
*1141 FILLER_29_69
*1142 FILLER_29_80
*1143 FILLER_29_88
*1144 FILLER_29_9
*1145 FILLER_29_93
*1146 FILLER_2_109
*1147 FILLER_2_121
*1148 FILLER_2_133
*1149 FILLER_2_139
*1150 FILLER_2_141
*1151 FILLER_2_153
*1152 FILLER_2_165
*1153 FILLER_2_177
*1154 FILLER_2_189
*1155 FILLER_2_195
*1156 FILLER_2_197
*1157 FILLER_2_209
*1158 FILLER_2_22
*1159 FILLER_2_221
*1160 FILLER_2_233
*1161 FILLER_2_245
*1162 FILLER_2_251
*1163 FILLER_2_253
*1164 FILLER_2_265
*1165 FILLER_2_277
*1166 FILLER_2_289
*1167 FILLER_2_29
*1168 FILLER_2_297
*1169 FILLER_2_3
*1170 FILLER_2_41
*1171 FILLER_2_65
*1172 FILLER_2_77
*1173 FILLER_2_83
*1174 FILLER_2_85
*1175 FILLER_2_97
*1176 FILLER_30_106
*1177 FILLER_30_124
*1178 FILLER_30_13
*1179 FILLER_30_133
*1180 FILLER_30_139
*1181 FILLER_30_141
*1182 FILLER_30_146
*1183 FILLER_30_154
*1184 FILLER_30_164
*1185 FILLER_30_176
*1186 FILLER_30_188
*1187 FILLER_30_197
*1188 FILLER_30_209
*1189 FILLER_30_21
*1190 FILLER_30_221
*1191 FILLER_30_233
*1192 FILLER_30_245
*1193 FILLER_30_251
*1194 FILLER_30_253
*1195 FILLER_30_26
*1196 FILLER_30_265
*1197 FILLER_30_277
*1198 FILLER_30_289
*1199 FILLER_30_29
*1200 FILLER_30_297
*1201 FILLER_30_3
*1202 FILLER_30_33
*1203 FILLER_30_40
*1204 FILLER_30_48
*1205 FILLER_30_54
*1206 FILLER_30_68
*1207 FILLER_30_74
*1208 FILLER_30_81
*1209 FILLER_30_85
*1210 FILLER_30_89
*1211 FILLER_30_93
*1212 FILLER_31_11
*1213 FILLER_31_110
*1214 FILLER_31_113
*1215 FILLER_31_125
*1216 FILLER_31_137
*1217 FILLER_31_147
*1218 FILLER_31_155
*1219 FILLER_31_16
*1220 FILLER_31_167
*1221 FILLER_31_169
*1222 FILLER_31_175
*1223 FILLER_31_187
*1224 FILLER_31_199
*1225 FILLER_31_211
*1226 FILLER_31_223
*1227 FILLER_31_225
*1228 FILLER_31_237
*1229 FILLER_31_24
*1230 FILLER_31_249
*1231 FILLER_31_261
*1232 FILLER_31_273
*1233 FILLER_31_279
*1234 FILLER_31_281
*1235 FILLER_31_293
*1236 FILLER_31_3
*1237 FILLER_31_35
*1238 FILLER_31_50
*1239 FILLER_31_57
*1240 FILLER_31_62
*1241 FILLER_31_74
*1242 FILLER_31_86
*1243 FILLER_31_97
*1244 FILLER_32_10
*1245 FILLER_32_107
*1246 FILLER_32_113
*1247 FILLER_32_118
*1248 FILLER_32_130
*1249 FILLER_32_138
*1250 FILLER_32_14
*1251 FILLER_32_141
*1252 FILLER_32_149
*1253 FILLER_32_157
*1254 FILLER_32_163
*1255 FILLER_32_170
*1256 FILLER_32_179
*1257 FILLER_32_19
*1258 FILLER_32_191
*1259 FILLER_32_195
*1260 FILLER_32_197
*1261 FILLER_32_209
*1262 FILLER_32_221
*1263 FILLER_32_233
*1264 FILLER_32_245
*1265 FILLER_32_251
*1266 FILLER_32_253
*1267 FILLER_32_265
*1268 FILLER_32_27
*1269 FILLER_32_277
*1270 FILLER_32_289
*1271 FILLER_32_29
*1272 FILLER_32_297
*1273 FILLER_32_3
*1274 FILLER_32_40
*1275 FILLER_32_51
*1276 FILLER_32_59
*1277 FILLER_32_71
*1278 FILLER_32_82
*1279 FILLER_32_85
*1280 FILLER_32_94
*1281 FILLER_33_100
*1282 FILLER_33_113
*1283 FILLER_33_122
*1284 FILLER_33_133
*1285 FILLER_33_137
*1286 FILLER_33_144
*1287 FILLER_33_152
*1288 FILLER_33_161
*1289 FILLER_33_167
*1290 FILLER_33_169
*1291 FILLER_33_17
*1292 FILLER_33_179
*1293 FILLER_33_187
*1294 FILLER_33_199
*1295 FILLER_33_211
*1296 FILLER_33_223
*1297 FILLER_33_225
*1298 FILLER_33_237
*1299 FILLER_33_249
*1300 FILLER_33_261
*1301 FILLER_33_273
*1302 FILLER_33_279
*1303 FILLER_33_281
*1304 FILLER_33_29
*1305 FILLER_33_293
*1306 FILLER_33_3
*1307 FILLER_33_33
*1308 FILLER_33_41
*1309 FILLER_33_49
*1310 FILLER_33_55
*1311 FILLER_33_57
*1312 FILLER_33_65
*1313 FILLER_33_73
*1314 FILLER_33_81
*1315 FILLER_33_88
*1316 FILLER_33_9
*1317 FILLER_33_96
*1318 FILLER_34_102
*1319 FILLER_34_111
*1320 FILLER_34_117
*1321 FILLER_34_128
*1322 FILLER_34_134
*1323 FILLER_34_138
*1324 FILLER_34_141
*1325 FILLER_34_15
*1326 FILLER_34_151
*1327 FILLER_34_159
*1328 FILLER_34_171
*1329 FILLER_34_182
*1330 FILLER_34_194
*1331 FILLER_34_197
*1332 FILLER_34_209
*1333 FILLER_34_221
*1334 FILLER_34_233
*1335 FILLER_34_245
*1336 FILLER_34_251
*1337 FILLER_34_253
*1338 FILLER_34_265
*1339 FILLER_34_27
*1340 FILLER_34_277
*1341 FILLER_34_289
*1342 FILLER_34_29
*1343 FILLER_34_297
*1344 FILLER_34_3
*1345 FILLER_34_33
*1346 FILLER_34_39
*1347 FILLER_34_43
*1348 FILLER_34_52
*1349 FILLER_34_60
*1350 FILLER_34_69
*1351 FILLER_34_79
*1352 FILLER_34_83
*1353 FILLER_34_85
*1354 FILLER_34_90
*1355 FILLER_35_102
*1356 FILLER_35_107
*1357 FILLER_35_111
*1358 FILLER_35_113
*1359 FILLER_35_124
*1360 FILLER_35_131
*1361 FILLER_35_143
*1362 FILLER_35_149
*1363 FILLER_35_15
*1364 FILLER_35_161
*1365 FILLER_35_167
*1366 FILLER_35_169
*1367 FILLER_35_181
*1368 FILLER_35_193
*1369 FILLER_35_205
*1370 FILLER_35_217
*1371 FILLER_35_223
*1372 FILLER_35_225
*1373 FILLER_35_237
*1374 FILLER_35_249
*1375 FILLER_35_261
*1376 FILLER_35_27
*1377 FILLER_35_273
*1378 FILLER_35_279
*1379 FILLER_35_281
*1380 FILLER_35_293
*1381 FILLER_35_3
*1382 FILLER_35_34
*1383 FILLER_35_46
*1384 FILLER_35_50
*1385 FILLER_35_54
*1386 FILLER_35_57
*1387 FILLER_35_67
*1388 FILLER_35_76
*1389 FILLER_35_86
*1390 FILLER_35_94
*1391 FILLER_36_101
*1392 FILLER_36_111
*1393 FILLER_36_122
*1394 FILLER_36_13
*1395 FILLER_36_130
*1396 FILLER_36_138
*1397 FILLER_36_141
*1398 FILLER_36_147
*1399 FILLER_36_153
*1400 FILLER_36_165
*1401 FILLER_36_183
*1402 FILLER_36_195
*1403 FILLER_36_197
*1404 FILLER_36_209
*1405 FILLER_36_221
*1406 FILLER_36_233
*1407 FILLER_36_245
*1408 FILLER_36_25
*1409 FILLER_36_251
*1410 FILLER_36_253
*1411 FILLER_36_265
*1412 FILLER_36_277
*1413 FILLER_36_289
*1414 FILLER_36_29
*1415 FILLER_36_297
*1416 FILLER_36_3
*1417 FILLER_36_35
*1418 FILLER_36_50
*1419 FILLER_36_60
*1420 FILLER_36_70
*1421 FILLER_36_82
*1422 FILLER_36_85
*1423 FILLER_37_100
*1424 FILLER_37_113
*1425 FILLER_37_119
*1426 FILLER_37_133
*1427 FILLER_37_139
*1428 FILLER_37_146
*1429 FILLER_37_15
*1430 FILLER_37_152
*1431 FILLER_37_158
*1432 FILLER_37_166
*1433 FILLER_37_169
*1434 FILLER_37_177
*1435 FILLER_37_188
*1436 FILLER_37_200
*1437 FILLER_37_212
*1438 FILLER_37_225
*1439 FILLER_37_237
*1440 FILLER_37_249
*1441 FILLER_37_261
*1442 FILLER_37_273
*1443 FILLER_37_279
*1444 FILLER_37_281
*1445 FILLER_37_293
*1446 FILLER_37_3
*1447 FILLER_37_32
*1448 FILLER_37_40
*1449 FILLER_37_48
*1450 FILLER_37_57
*1451 FILLER_37_66
*1452 FILLER_37_78
*1453 FILLER_37_84
*1454 FILLER_37_88
*1455 FILLER_38_109
*1456 FILLER_38_124
*1457 FILLER_38_132
*1458 FILLER_38_138
*1459 FILLER_38_141
*1460 FILLER_38_15
*1461 FILLER_38_155
*1462 FILLER_38_167
*1463 FILLER_38_179
*1464 FILLER_38_191
*1465 FILLER_38_195
*1466 FILLER_38_197
*1467 FILLER_38_209
*1468 FILLER_38_221
*1469 FILLER_38_233
*1470 FILLER_38_245
*1471 FILLER_38_251
*1472 FILLER_38_253
*1473 FILLER_38_265
*1474 FILLER_38_27
*1475 FILLER_38_277
*1476 FILLER_38_289
*1477 FILLER_38_29
*1478 FILLER_38_297
*1479 FILLER_38_3
*1480 FILLER_38_37
*1481 FILLER_38_42
*1482 FILLER_38_50
*1483 FILLER_38_63
*1484 FILLER_38_67
*1485 FILLER_38_72
*1486 FILLER_38_79
*1487 FILLER_38_83
*1488 FILLER_38_85
*1489 FILLER_38_97
*1490 FILLER_39_104
*1491 FILLER_39_113
*1492 FILLER_39_12
*1493 FILLER_39_122
*1494 FILLER_39_135
*1495 FILLER_39_142
*1496 FILLER_39_154
*1497 FILLER_39_166
*1498 FILLER_39_169
*1499 FILLER_39_183
*1500 FILLER_39_195
*1501 FILLER_39_207
*1502 FILLER_39_219
*1503 FILLER_39_223
*1504 FILLER_39_225
*1505 FILLER_39_23
*1506 FILLER_39_237
*1507 FILLER_39_249
*1508 FILLER_39_261
*1509 FILLER_39_273
*1510 FILLER_39_279
*1511 FILLER_39_281
*1512 FILLER_39_293
*1513 FILLER_39_3
*1514 FILLER_39_34
*1515 FILLER_39_46
*1516 FILLER_39_50
*1517 FILLER_39_54
*1518 FILLER_39_57
*1519 FILLER_39_67
*1520 FILLER_39_80
*1521 FILLER_39_90
*1522 FILLER_39_97
*1523 FILLER_3_111
*1524 FILLER_3_113
*1525 FILLER_3_125
*1526 FILLER_3_137
*1527 FILLER_3_149
*1528 FILLER_3_161
*1529 FILLER_3_167
*1530 FILLER_3_169
*1531 FILLER_3_181
*1532 FILLER_3_193
*1533 FILLER_3_205
*1534 FILLER_3_217
*1535 FILLER_3_223
*1536 FILLER_3_225
*1537 FILLER_3_237
*1538 FILLER_3_249
*1539 FILLER_3_25
*1540 FILLER_3_261
*1541 FILLER_3_273
*1542 FILLER_3_279
*1543 FILLER_3_281
*1544 FILLER_3_293
*1545 FILLER_3_3
*1546 FILLER_3_46
*1547 FILLER_3_54
*1548 FILLER_3_57
*1549 FILLER_3_75
*1550 FILLER_3_87
*1551 FILLER_3_99
*1552 FILLER_40_102
*1553 FILLER_40_110
*1554 FILLER_40_116
*1555 FILLER_40_128
*1556 FILLER_40_134
*1557 FILLER_40_138
*1558 FILLER_40_141
*1559 FILLER_40_15
*1560 FILLER_40_152
*1561 FILLER_40_162
*1562 FILLER_40_166
*1563 FILLER_40_172
*1564 FILLER_40_187
*1565 FILLER_40_195
*1566 FILLER_40_197
*1567 FILLER_40_209
*1568 FILLER_40_221
*1569 FILLER_40_233
*1570 FILLER_40_24
*1571 FILLER_40_245
*1572 FILLER_40_251
*1573 FILLER_40_253
*1574 FILLER_40_265
*1575 FILLER_40_277
*1576 FILLER_40_289
*1577 FILLER_40_29
*1578 FILLER_40_297
*1579 FILLER_40_3
*1580 FILLER_40_41
*1581 FILLER_40_50
*1582 FILLER_40_58
*1583 FILLER_40_68
*1584 FILLER_40_80
*1585 FILLER_40_85
*1586 FILLER_40_94
*1587 FILLER_41_102
*1588 FILLER_41_110
*1589 FILLER_41_113
*1590 FILLER_41_123
*1591 FILLER_41_13
*1592 FILLER_41_134
*1593 FILLER_41_146
*1594 FILLER_41_152
*1595 FILLER_41_164
*1596 FILLER_41_169
*1597 FILLER_41_175
*1598 FILLER_41_187
*1599 FILLER_41_19
*1600 FILLER_41_199
*1601 FILLER_41_211
*1602 FILLER_41_223
*1603 FILLER_41_225
*1604 FILLER_41_237
*1605 FILLER_41_249
*1606 FILLER_41_25
*1607 FILLER_41_261
*1608 FILLER_41_273
*1609 FILLER_41_279
*1610 FILLER_41_281
*1611 FILLER_41_293
*1612 FILLER_41_3
*1613 FILLER_41_32
*1614 FILLER_41_44
*1615 FILLER_41_48
*1616 FILLER_41_52
*1617 FILLER_41_57
*1618 FILLER_41_63
*1619 FILLER_41_70
*1620 FILLER_41_79
*1621 FILLER_41_87
*1622 FILLER_41_94
*1623 FILLER_42_103
*1624 FILLER_42_113
*1625 FILLER_42_121
*1626 FILLER_42_127
*1627 FILLER_42_138
*1628 FILLER_42_141
*1629 FILLER_42_153
*1630 FILLER_42_161
*1631 FILLER_42_174
*1632 FILLER_42_186
*1633 FILLER_42_194
*1634 FILLER_42_197
*1635 FILLER_42_209
*1636 FILLER_42_21
*1637 FILLER_42_221
*1638 FILLER_42_233
*1639 FILLER_42_245
*1640 FILLER_42_251
*1641 FILLER_42_253
*1642 FILLER_42_265
*1643 FILLER_42_27
*1644 FILLER_42_277
*1645 FILLER_42_289
*1646 FILLER_42_29
*1647 FILLER_42_297
*1648 FILLER_42_3
*1649 FILLER_42_41
*1650 FILLER_42_53
*1651 FILLER_42_64
*1652 FILLER_42_71
*1653 FILLER_42_82
*1654 FILLER_42_85
*1655 FILLER_42_9
*1656 FILLER_42_91
*1657 FILLER_42_95
*1658 FILLER_43_101
*1659 FILLER_43_106
*1660 FILLER_43_113
*1661 FILLER_43_125
*1662 FILLER_43_137
*1663 FILLER_43_149
*1664 FILLER_43_15
*1665 FILLER_43_157
*1666 FILLER_43_166
*1667 FILLER_43_169
*1668 FILLER_43_181
*1669 FILLER_43_193
*1670 FILLER_43_205
*1671 FILLER_43_217
*1672 FILLER_43_223
*1673 FILLER_43_225
*1674 FILLER_43_237
*1675 FILLER_43_249
*1676 FILLER_43_261
*1677 FILLER_43_27
*1678 FILLER_43_273
*1679 FILLER_43_279
*1680 FILLER_43_281
*1681 FILLER_43_293
*1682 FILLER_43_3
*1683 FILLER_43_37
*1684 FILLER_43_49
*1685 FILLER_43_55
*1686 FILLER_43_57
*1687 FILLER_43_70
*1688 FILLER_43_78
*1689 FILLER_43_82
*1690 FILLER_43_89
*1691 FILLER_44_106
*1692 FILLER_44_118
*1693 FILLER_44_130
*1694 FILLER_44_138
*1695 FILLER_44_141
*1696 FILLER_44_15
*1697 FILLER_44_153
*1698 FILLER_44_158
*1699 FILLER_44_170
*1700 FILLER_44_182
*1701 FILLER_44_194
*1702 FILLER_44_197
*1703 FILLER_44_209
*1704 FILLER_44_221
*1705 FILLER_44_233
*1706 FILLER_44_245
*1707 FILLER_44_251
*1708 FILLER_44_253
*1709 FILLER_44_26
*1710 FILLER_44_265
*1711 FILLER_44_277
*1712 FILLER_44_289
*1713 FILLER_44_29
*1714 FILLER_44_297
*1715 FILLER_44_3
*1716 FILLER_44_41
*1717 FILLER_44_45
*1718 FILLER_44_50
*1719 FILLER_44_54
*1720 FILLER_44_58
*1721 FILLER_44_71
*1722 FILLER_44_83
*1723 FILLER_44_85
*1724 FILLER_44_90
*1725 FILLER_44_98
*1726 FILLER_45_104
*1727 FILLER_45_113
*1728 FILLER_45_123
*1729 FILLER_45_135
*1730 FILLER_45_146