*SPEF "ieee 1481-1999"
*DESIGN "alu_top"
*DATE "11:11:11 Fri 11 11, 1111"
*VENDOR "OpenRCX"
*PROGRAM "Parallel Extraction"
*VERSION "1.0"
*DESIGN_FLOW "NAME_SCOPE LOCAL" "PIN_CAP NONE"
*DIVIDER /
*DELIMITER :
*BUS_DELIMITER []
*T_UNIT 1 NS
*C_UNIT 1 PF
*R_UNIT 1 OHM
*L_UNIT 1 HENRY

*NAME_MAP
*1 io_in[0]
*2 io_in[1]
*3 io_in[2]
*4 io_in[3]
*5 io_in[4]
*6 io_in[5]
*7 io_in[6]
*8 io_in[7]
*9 io_out[0]
*10 io_out[1]
*11 io_out[2]
*12 io_out[3]
*13 io_out[4]
*14 io_out[5]
*15 io_out[6]
*16 net9
*19 _000_
*20 _001_
*21 _002_
*22 _003_
*23 _004_
*24 _005_
*25 _006_
*26 _007_
*27 _008_
*28 _009_
*29 _010_
*30 _011_
*31 _012_
*32 _013_
*33 _014_
*34 _015_
*35 _016_
*36 _017_
*37 _018_
*38 _019_
*39 _020_
*40 _021_
*41 _022_
*42 _023_
*43 _024_
*44 _025_
*45 _026_
*46 _027_
*47 _028_
*48 _029_
*49 _030_
*50 _031_
*51 _032_
*52 _033_
*53 _034_
*54 _035_
*55 _036_
*56 _037_
*57 _038_
*58 _039_
*59 _040_
*60 _041_
*61 _042_
*62 _043_
*63 _044_
*64 _045_
*65 _046_
*66 _047_
*67 _048_
*68 _049_
*69 _050_
*70 _051_
*71 _052_
*72 _053_
*73 _054_
*74 _055_
*75 _056_
*76 _057_
*77 _058_
*78 _059_
*79 _060_
*80 _062_
*81 _063_
*82 _064_
*83 _065_
*84 _066_
*85 _067_
*86 _068_
*87 _069_
*88 _070_
*89 _071_
*90 _072_
*91 _073_
*92 _074_
*93 _075_
*94 _076_
*95 _077_
*96 _078_
*97 _079_
*98 _080_
*99 _081_
*100 _082_
*101 _083_
*102 _084_
*103 _085_
*104 _086_
*105 _087_
*106 _088_
*107 _089_
*108 _090_
*109 _091_
*110 _092_
*111 _093_
*112 _094_
*113 _095_
*114 _096_
*115 _097_
*116 _098_
*117 _099_
*118 _100_
*119 _101_
*120 _102_
*121 _103_
*122 _104_
*123 _105_
*124 _106_
*125 _107_
*126 _108_
*127 _109_
*128 _110_
*129 _111_
*130 alu\.fsm0\.gnt_0
*131 alu\.fsm0\.gnt_1
*132 alu\.fsm0\.state\[0\]
*133 alu\.fsm0\.state\[1\]
*134 alu\.fsm0\.state\[2\]
*135 alu\.fsm1\.gnt_0
*136 alu\.fsm1\.state\[0\]
*137 alu\.fsm1\.state\[2\]
*138 clknet_0__016_
*139 clknet_0__025_
*140 clknet_0__032_
*141 clknet_0__064_
*142 clknet_0__077_
*143 clknet_0__081_
*144 clknet_0__086_
*145 clknet_0__090_
*146 clknet_0__093_
*147 clknet_0__094_
*148 clknet_0__097_
*149 clknet_0__103_
*150 clknet_0_io_in[0]
*151 clknet_1_0__leaf__016_
*152 clknet_1_0__leaf__025_
*153 clknet_1_0__leaf__032_
*154 clknet_1_0__leaf__064_
*155 clknet_1_0__leaf__077_
*156 clknet_1_0__leaf__081_
*157 clknet_1_0__leaf__086_
*158 clknet_1_0__leaf__090_
*159 clknet_1_0__leaf__093_
*160 clknet_1_0__leaf__094_
*161 clknet_1_0__leaf__097_
*162 clknet_1_0__leaf__103_
*163 clknet_1_0__leaf_io_in[0]
*164 clknet_1_1__leaf__016_
*165 clknet_1_1__leaf__025_
*166 clknet_1_1__leaf__032_
*167 clknet_1_1__leaf__064_
*168 clknet_1_1__leaf__077_
*169 clknet_1_1__leaf__081_
*170 clknet_1_1__leaf__086_
*171 clknet_1_1__leaf__090_
*172 clknet_1_1__leaf__093_
*173 clknet_1_1__leaf__094_
*174 clknet_1_1__leaf__097_
*175 clknet_1_1__leaf__103_
*176 clknet_1_1__leaf_io_in[0]
*177 net1
*178 net10
*179 net11
*180 net12
*181 net2
*182 net3
*183 net4
*184 net5
*185 net6
*186 net7
*187 net8
*188 FILLER_0_109
*189 FILLER_0_113
*190 FILLER_0_125
*191 FILLER_0_137
*192 FILLER_0_141
*193 FILLER_0_15
*194 FILLER_0_153
*195 FILLER_0_165
*196 FILLER_0_169
*197 FILLER_0_181
*198 FILLER_0_193
*199 FILLER_0_197
*200 FILLER_0_209
*201 FILLER_0_221
*202 FILLER_0_225
*203 FILLER_0_237
*204 FILLER_0_249
*205 FILLER_0_253
*206 FILLER_0_265
*207 FILLER_0_27
*208 FILLER_0_277
*209 FILLER_0_281
*210 FILLER_0_29
*211 FILLER_0_293
*212 FILLER_0_3
*213 FILLER_0_41
*214 FILLER_0_53
*215 FILLER_0_57
*216 FILLER_0_69
*217 FILLER_0_81
*218 FILLER_0_85
*219 FILLER_0_97
*220 FILLER_10_109
*221 FILLER_10_121
*222 FILLER_10_133
*223 FILLER_10_139
*224 FILLER_10_141
*225 FILLER_10_15
*226 FILLER_10_153
*227 FILLER_10_165
*228 FILLER_10_177
*229 FILLER_10_189
*230 FILLER_10_195
*231 FILLER_10_197
*232 FILLER_10_209
*233 FILLER_10_221
*234 FILLER_10_233
*235 FILLER_10_245
*236 FILLER_10_251
*237 FILLER_10_253
*238 FILLER_10_265
*239 FILLER_10_27
*240 FILLER_10_277
*241 FILLER_10_289
*242 FILLER_10_29
*243 FILLER_10_297
*244 FILLER_10_3
*245 FILLER_10_41
*246 FILLER_10_53
*247 FILLER_10_65
*248 FILLER_10_77
*249 FILLER_10_83
*250 FILLER_10_85
*251 FILLER_10_97
*252 FILLER_11_105
*253 FILLER_11_111
*254 FILLER_11_113
*255 FILLER_11_125
*256 FILLER_11_137
*257 FILLER_11_149
*258 FILLER_11_15
*259 FILLER_11_161
*260 FILLER_11_167
*261 FILLER_11_169
*262 FILLER_11_181
*263 FILLER_11_193
*264 FILLER_11_205
*265 FILLER_11_217
*266 FILLER_11_223
*267 FILLER_11_225
*268 FILLER_11_237
*269 FILLER_11_249
*270 FILLER_11_261
*271 FILLER_11_27
*272 FILLER_11_273
*273 FILLER_11_279
*274 FILLER_11_281
*275 FILLER_11_293
*276 FILLER_11_3
*277 FILLER_11_39
*278 FILLER_11_51
*279 FILLER_11_55
*280 FILLER_11_57
*281 FILLER_11_69
*282 FILLER_11_81
*283 FILLER_11_93
*284 FILLER_12_109
*285 FILLER_12_121
*286 FILLER_12_133
*287 FILLER_12_139
*288 FILLER_12_141
*289 FILLER_12_15
*290 FILLER_12_153
*291 FILLER_12_165
*292 FILLER_12_177
*293 FILLER_12_189
*294 FILLER_12_195
*295 FILLER_12_197
*296 FILLER_12_209
*297 FILLER_12_221
*298 FILLER_12_233
*299 FILLER_12_245
*300 FILLER_12_251
*301 FILLER_12_253
*302 FILLER_12_265
*303 FILLER_12_27
*304 FILLER_12_277
*305 FILLER_12_289
*306 FILLER_12_29
*307 FILLER_12_297
*308 FILLER_12_3
*309 FILLER_12_41
*310 FILLER_12_53
*311 FILLER_12_65
*312 FILLER_12_77
*313 FILLER_12_83
*314 FILLER_12_85
*315 FILLER_12_97
*316 FILLER_13_105
*317 FILLER_13_111
*318 FILLER_13_113
*319 FILLER_13_125
*320 FILLER_13_137
*321 FILLER_13_149
*322 FILLER_13_15
*323 FILLER_13_161
*324 FILLER_13_167
*325 FILLER_13_169
*326 FILLER_13_181
*327 FILLER_13_193
*328 FILLER_13_205
*329 FILLER_13_217
*330 FILLER_13_223
*331 FILLER_13_225
*332 FILLER_13_237
*333 FILLER_13_249
*334 FILLER_13_261
*335 FILLER_13_27
*336 FILLER_13_273
*337 FILLER_13_279
*338 FILLER_13_281
*339 FILLER_13_293
*340 FILLER_13_3
*341 FILLER_13_39
*342 FILLER_13_51
*343 FILLER_13_55
*344 FILLER_13_57
*345 FILLER_13_69
*346 FILLER_13_81
*347 FILLER_13_93
*348 FILLER_14_109
*349 FILLER_14_121
*350 FILLER_14_133
*351 FILLER_14_139
*352 FILLER_14_141
*353 FILLER_14_15
*354 FILLER_14_153
*355 FILLER_14_165
*356 FILLER_14_177
*357 FILLER_14_189
*358 FILLER_14_195
*359 FILLER_14_197
*360 FILLER_14_209
*361 FILLER_14_221
*362 FILLER_14_233
*363 FILLER_14_245
*364 FILLER_14_251
*365 FILLER_14_253
*366 FILLER_14_265
*367 FILLER_14_27
*368 FILLER_14_277
*369 FILLER_14_289
*370 FILLER_14_29
*371 FILLER_14_297
*372 FILLER_14_3
*373 FILLER_14_41
*374 FILLER_14_53
*375 FILLER_14_65
*376 FILLER_14_77
*377 FILLER_14_83
*378 FILLER_14_85
*379 FILLER_14_97
*380 FILLER_15_105
*381 FILLER_15_111
*382 FILLER_15_113
*383 FILLER_15_125
*384 FILLER_15_137
*385 FILLER_15_149
*386 FILLER_15_15
*387 FILLER_15_161
*388 FILLER_15_167
*389 FILLER_15_169
*390 FILLER_15_181
*391 FILLER_15_193
*392 FILLER_15_205
*393 FILLER_15_217
*394 FILLER_15_223
*395 FILLER_15_225
*396 FILLER_15_237
*397 FILLER_15_249
*398 FILLER_15_261
*399 FILLER_15_27
*400 FILLER_15_273
*401 FILLER_15_279
*402 FILLER_15_281
*403 FILLER_15_293
*404 FILLER_15_3
*405 FILLER_15_39
*406 FILLER_15_51
*407 FILLER_15_55
*408 FILLER_15_57
*409 FILLER_15_69
*410 FILLER_15_81
*411 FILLER_15_93
*412 FILLER_16_109
*413 FILLER_16_121
*414 FILLER_16_133
*415 FILLER_16_139
*416 FILLER_16_141
*417 FILLER_16_15
*418 FILLER_16_153
*419 FILLER_16_165
*420 FILLER_16_177
*421 FILLER_16_189
*422 FILLER_16_195
*423 FILLER_16_197
*424 FILLER_16_209
*425 FILLER_16_221
*426 FILLER_16_233
*427 FILLER_16_245
*428 FILLER_16_251
*429 FILLER_16_253
*430 FILLER_16_265
*431 FILLER_16_27
*432 FILLER_16_277
*433 FILLER_16_289
*434 FILLER_16_29
*435 FILLER_16_297
*436 FILLER_16_3
*437 FILLER_16_41
*438 FILLER_16_53
*439 FILLER_16_65
*440 FILLER_16_77
*441 FILLER_16_83
*442 FILLER_16_85
*443 FILLER_16_97
*444 FILLER_17_105
*445 FILLER_17_111
*446 FILLER_17_113
*447 FILLER_17_125
*448 FILLER_17_137
*449 FILLER_17_149
*450 FILLER_17_15
*451 FILLER_17_161
*452 FILLER_17_167
*453 FILLER_17_169
*454 FILLER_17_181
*455 FILLER_17_193
*456 FILLER_17_205
*457 FILLER_17_217
*458 FILLER_17_223
*459 FILLER_17_225
*460 FILLER_17_237
*461 FILLER_17_249
*462 FILLER_17_261
*463 FILLER_17_27
*464 FILLER_17_273
*465 FILLER_17_279
*466 FILLER_17_281
*467 FILLER_17_293
*468 FILLER_17_3
*469 FILLER_17_39
*470 FILLER_17_51
*471 FILLER_17_55
*472 FILLER_17_57
*473 FILLER_17_69
*474 FILLER_17_81
*475 FILLER_17_93
*476 FILLER_18_109
*477 FILLER_18_121
*478 FILLER_18_133
*479 FILLER_18_139
*480 FILLER_18_141
*481 FILLER_18_15
*482 FILLER_18_153
*483 FILLER_18_165
*484 FILLER_18_177
*485 FILLER_18_189
*486 FILLER_18_195
*487 FILLER_18_197
*488 FILLER_18_209
*489 FILLER_18_221
*490 FILLER_18_233
*491 FILLER_18_245
*492 FILLER_18_251
*493 FILLER_18_253
*494 FILLER_18_265
*495 FILLER_18_27
*496 FILLER_18_277
*497 FILLER_18_289
*498 FILLER_18_29
*499 FILLER_18_297
*500 FILLER_18_3
*501 FILLER_18_41
*502 FILLER_18_53
*503 FILLER_18_65
*504 FILLER_18_77
*505 FILLER_18_83
*506 FILLER_18_85
*507 FILLER_18_97
*508 FILLER_19_105
*509 FILLER_19_111
*510 FILLER_19_113
*511 FILLER_19_125
*512 FILLER_19_137
*513 FILLER_19_149
*514 FILLER_19_15
*515 FILLER_19_161
*516 FILLER_19_167
*517 FILLER_19_169
*518 FILLER_19_181
*519 FILLER_19_193
*520 FILLER_19_205
*521 FILLER_19_217
*522 FILLER_19_223
*523 FILLER_19_225
*524 FILLER_19_237
*525 FILLER_19_249
*526 FILLER_19_261
*527 FILLER_19_27
*528 FILLER_19_273
*529 FILLER_19_279
*530 FILLER_19_281
*531 FILLER_19_293
*532 FILLER_19_3
*533 FILLER_19_39
*534 FILLER_19_51
*535 FILLER_19_55
*536 FILLER_19_57
*537 FILLER_19_69
*538 FILLER_19_81
*539 FILLER_19_93
*540 FILLER_1_105
*541 FILLER_1_111
*542 FILLER_1_113
*543 FILLER_1_125
*544 FILLER_1_137
*545 FILLER_1_149
*546 FILLER_1_15
*547 FILLER_1_161
*548 FILLER_1_167
*549 FILLER_1_169
*550 FILLER_1_181
*551 FILLER_1_193
*552 FILLER_1_205
*553 FILLER_1_217
*554 FILLER_1_223
*555 FILLER_1_225
*556 FILLER_1_237
*557 FILLER_1_249
*558 FILLER_1_261
*559 FILLER_1_27
*560 FILLER_1_273
*561 FILLER_1_279
*562 FILLER_1_281
*563 FILLER_1_293
*564 FILLER_1_3
*565 FILLER_1_39
*566 FILLER_1_51
*567 FILLER_1_55
*568 FILLER_1_57
*569 FILLER_1_69
*570 FILLER_1_81
*571 FILLER_1_93
*572 FILLER_20_109
*573 FILLER_20_121
*574 FILLER_20_133
*575 FILLER_20_139
*576 FILLER_20_141
*577 FILLER_20_15
*578 FILLER_20_153
*579 FILLER_20_165
*580 FILLER_20_177
*581 FILLER_20_189
*582 FILLER_20_195
*583 FILLER_20_197
*584 FILLER_20_209
*585 FILLER_20_221
*586 FILLER_20_233
*587 FILLER_20_245
*588 FILLER_20_251
*589 FILLER_20_253
*590 FILLER_20_265
*591 FILLER_20_27
*592 FILLER_20_277
*593 FILLER_20_289
*594 FILLER_20_29
*595 FILLER_20_297
*596 FILLER_20_3
*597 FILLER_20_41
*598 FILLER_20_53
*599 FILLER_20_65
*600 FILLER_20_77
*601 FILLER_20_83
*602 FILLER_20_85
*603 FILLER_20_97
*604 FILLER_21_105
*605 FILLER_21_111
*606 FILLER_21_113
*607 FILLER_21_125
*608 FILLER_21_137
*609 FILLER_21_149
*610 FILLER_21_15
*611 FILLER_21_161
*612 FILLER_21_167
*613 FILLER_21_169
*614 FILLER_21_181
*615 FILLER_21_193
*616 FILLER_21_205
*617 FILLER_21_217
*618 FILLER_21_223
*619 FILLER_21_225
*620 FILLER_21_237
*621 FILLER_21_249
*622 FILLER_21_261
*623 FILLER_21_27
*624 FILLER_21_273
*625 FILLER_21_279
*626 FILLER_21_281
*627 FILLER_21_293
*628 FILLER_21_3
*629 FILLER_21_39
*630 FILLER_21_51
*631 FILLER_21_55
*632 FILLER_21_57
*633 FILLER_21_69
*634 FILLER_21_81
*635 FILLER_21_93
*636 FILLER_22_109
*637 FILLER_22_121
*638 FILLER_22_133
*639 FILLER_22_139
*640 FILLER_22_141
*641 FILLER_22_15
*642 FILLER_22_153
*643 FILLER_22_165
*644 FILLER_22_177
*645 FILLER_22_189
*646 FILLER_22_195
*647 FILLER_22_197
*648 FILLER_22_209
*649 FILLER_22_221
*650 FILLER_22_233
*651 FILLER_22_245
*652 FILLER_22_251
*653 FILLER_22_253
*654 FILLER_22_265
*655 FILLER_22_27
*656 FILLER_22_277
*657 FILLER_22_289
*658 FILLER_22_29
*659 FILLER_22_297
*660 FILLER_22_3
*661 FILLER_22_41
*662 FILLER_22_53
*663 FILLER_22_65
*664 FILLER_22_77
*665 FILLER_22_83
*666 FILLER_22_85
*667 FILLER_22_97
*668 FILLER_23_105
*669 FILLER_23_111
*670 FILLER_23_113
*671 FILLER_23_125
*672 FILLER_23_137
*673 FILLER_23_149
*674 FILLER_23_15
*675 FILLER_23_161
*676 FILLER_23_167
*677 FILLER_23_169
*678 FILLER_23_181
*679 FILLER_23_193
*680 FILLER_23_205
*681 FILLER_23_217
*682 FILLER_23_223
*683 FILLER_23_225
*684 FILLER_23_237
*685 FILLER_23_249
*686 FILLER_23_261
*687 FILLER_23_27
*688 FILLER_23_273
*689 FILLER_23_279
*690 FILLER_23_281
*691 FILLER_23_293
*692 FILLER_23_3
*693 FILLER_23_39
*694 FILLER_23_51
*695 FILLER_23_55
*696 FILLER_23_57
*697 FILLER_23_69
*698 FILLER_23_81
*699 FILLER_23_93
*700 FILLER_24_109
*701 FILLER_24_121
*702 FILLER_24_133
*703 FILLER_24_139
*704 FILLER_24_141
*705 FILLER_24_15
*706 FILLER_24_153
*707 FILLER_24_165
*708 FILLER_24_177
*709 FILLER_24_189
*710 FILLER_24_195
*711 FILLER_24_197
*712 FILLER_24_209
*713 FILLER_24_221
*714 FILLER_24_233
*715 FILLER_24_245
*716 FILLER_24_251
*717 FILLER_24_253
*718 FILLER_24_265
*719 FILLER_24_27
*720 FILLER_24_277
*721 FILLER_24_289
*722 FILLER_24_29
*723 FILLER_24_297
*724 FILLER_24_3
*725 FILLER_24_41
*726 FILLER_24_53
*727 FILLER_24_65
*728 FILLER_24_77
*729 FILLER_24_83
*730 FILLER_24_85
*731 FILLER_24_97
*732 FILLER_25_105
*733 FILLER_25_111
*734 FILLER_25_113
*735 FILLER_25_125
*736 FILLER_25_137
*737 FILLER_25_149
*738 FILLER_25_15
*739 FILLER_25_161
*740 FILLER_25_167
*741 FILLER_25_169
*742 FILLER_25_181
*743 FILLER_25_193
*744 FILLER_25_205
*745 FILLER_25_217
*746 FILLER_25_223
*747 FILLER_25_225
*748 FILLER_25_237
*749 FILLER_25_249
*750 FILLER_25_261
*751 FILLER_25_27
*752 FILLER_25_273
*753 FILLER_25_279
*754 FILLER_25_281
*755 FILLER_25_293
*756 FILLER_25_3
*757 FILLER_25_39
*758 FILLER_25_51
*759 FILLER_25_55
*760 FILLER_25_57
*761 FILLER_25_69
*762 FILLER_25_81
*763 FILLER_25_93
*764 FILLER_26_109
*765 FILLER_26_121
*766 FILLER_26_133
*767 FILLER_26_139
*768 FILLER_26_141
*769 FILLER_26_15
*770 FILLER_26_153
*771 FILLER_26_165
*772 FILLER_26_177
*773 FILLER_26_189
*774 FILLER_26_195
*775 FILLER_26_197
*776 FILLER_26_209
*777 FILLER_26_221
*778 FILLER_26_233
*779 FILLER_26_245
*780 FILLER_26_251
*781 FILLER_26_253
*782 FILLER_26_265
*783 FILLER_26_27
*784 FILLER_26_277
*785 FILLER_26_289
*786 FILLER_26_29
*787 FILLER_26_297
*788 FILLER_26_3
*789 FILLER_26_41
*790 FILLER_26_53
*791 FILLER_26_65
*792 FILLER_26_77
*793 FILLER_26_83
*794 FILLER_26_85
*795 FILLER_26_97
*796 FILLER_27_105
*797 FILLER_27_111
*798 FILLER_27_113
*799 FILLER_27_125
*800 FILLER_27_137
*801 FILLER_27_149
*802 FILLER_27_15
*803 FILLER_27_161
*804 FILLER_27_167
*805 FILLER_27_169
*806 FILLER_27_181
*807 FILLER_27_193
*808 FILLER_27_205
*809 FILLER_27_217
*810 FILLER_27_223
*811 FILLER_27_225
*812 FILLER_27_237
*813 FILLER_27_249
*814 FILLER_27_261
*815 FILLER_27_27
*816 FILLER_27_273
*817 FILLER_27_279
*818 FILLER_27_281
*819 FILLER_27_293
*820 FILLER_27_3
*821 FILLER_27_39
*822 FILLER_27_51
*823 FILLER_27_55
*824 FILLER_27_57
*825 FILLER_27_69
*826 FILLER_27_81
*827 FILLER_27_93
*828 FILLER_28_109
*829 FILLER_28_121
*830 FILLER_28_133
*831 FILLER_28_139
*832 FILLER_28_141
*833 FILLER_28_15
*834 FILLER_28_153
*835 FILLER_28_165
*836 FILLER_28_177
*837 FILLER_28_189
*838 FILLER_28_195
*839 FILLER_28_197
*840 FILLER_28_209
*841 FILLER_28_221
*842 FILLER_28_233
*843 FILLER_28_245
*844 FILLER_28_251
*845 FILLER_28_253
*846 FILLER_28_265
*847 FILLER_28_27
*848 FILLER_28_277
*849 FILLER_28_289
*850 FILLER_28_29
*851 FILLER_28_297
*852 FILLER_28_3
*853 FILLER_28_41
*854 FILLER_28_53
*855 FILLER_28_65
*856 FILLER_28_77
*857 FILLER_28_83
*858 FILLER_28_85
*859 FILLER_28_97
*860 FILLER_29_105
*861 FILLER_29_111
*862 FILLER_29_113
*863 FILLER_29_125
*864 FILLER_29_137
*865 FILLER_29_149
*866 FILLER_29_15
*867 FILLER_29_161
*868 FILLER_29_167
*869 FILLER_29_169
*870 FILLER_29_181
*871 FILLER_29_193
*872 FILLER_29_205
*873 FILLER_29_217
*874 FILLER_29_223
*875 FILLER_29_225
*876 FILLER_29_237
*877 FILLER_29_249
*878 FILLER_29_261
*879 FILLER_29_27
*880 FILLER_29_273
*881 FILLER_29_279
*882 FILLER_29_281
*883 FILLER_29_293
*884 FILLER_29_3
*885 FILLER_29_39
*886 FILLER_29_51
*887 FILLER_29_55
*888 FILLER_29_57
*889 FILLER_29_69
*890 FILLER_29_81
*891 FILLER_29_93
*892 FILLER_2_109
*893 FILLER_2_121
*894 FILLER_2_133
*895 FILLER_2_139
*896 FILLER_2_141
*897 FILLER_2_15
*898 FILLER_2_153
*899 FILLER_2_165
*900 FILLER_2_177
*901 FILLER_2_189
*902 FILLER_2_195
*903 FILLER_2_197
*904 FILLER_2_209
*905 FILLER_2_221
*906 FILLER_2_233
*907 FILLER_2_245
*908 FILLER_2_251
*909 FILLER_2_253
*910 FILLER_2_265
*911 FILLER_2_27
*912 FILLER_2_277
*913 FILLER_2_289
*914 FILLER_2_29
*915 FILLER_2_297
*916 FILLER_2_3
*917 FILLER_2_41
*918 FILLER_2_53
*919 FILLER_2_65
*920 FILLER_2_77
*921 FILLER_2_83
*922 FILLER_2_85
*923 FILLER_2_97
*924 FILLER_30_109
*925 FILLER_30_121
*926 FILLER_30_133
*927 FILLER_30_139
*928 FILLER_30_141
*929 FILLER_30_15
*930 FILLER_30_153
*931 FILLER_30_165
*932 FILLER_30_177
*933 FILLER_30_189
*934 FILLER_30_195
*935 FILLER_30_197
*936 FILLER_30_209
*937 FILLER_30_221
*938 FILLER_30_233
*939 FILLER_30_245
*940 FILLER_30_251
*941 FILLER_30_253
*942 FILLER_30_265
*943 FILLER_30_27
*944 FILLER_30_277
*945 FILLER_30_289
*946 FILLER_30_29
*947 FILLER_30_297
*948 FILLER_30_3
*949 FILLER_30_41
*950 FILLER_30_53
*951 FILLER_30_65
*952 FILLER_30_77
*953 FILLER_30_83
*954 FILLER_30_85
*955 FILLER_30_97
*956 FILLER_31_105
*957 FILLER_31_111
*958 FILLER_31_113
*959 FILLER_31_125
*960 FILLER_31_137
*961 FILLER_31_149
*962 FILLER_31_15
*963 FILLER_31_161
*964 FILLER_31_167
*965 FILLER_31_169
*966 FILLER_31_181
*967 FILLER_31_193
*968 FILLER_31_205
*969 FILLER_31_217
*970 FILLER_31_223
*971 FILLER_31_225
*972 FILLER_31_237
*973 FILLER_31_249
*974 FILLER_31_261
*975 FILLER_31_27
*976 FILLER_31_273
*977 FILLER_31_279
*978 FILLER_31_281
*979 FILLER_31_293
*980 FILLER_31_3
*981 FILLER_31_39
*982 FILLER_31_51
*983 FILLER_31_55
*984 FILLER_31_57
*985 FILLER_31_69
*986 FILLER_31_81
*987 FILLER_31_93
*988 FILLER_32_109
*989 FILLER_32_121
*990 FILLER_32_133
*991 FILLER_32_139
*992 FILLER_32_141
*993 FILLER_32_15
*994 FILLER_32_153
*995 FILLER_32_165
*996 FILLER_32_177
*997 FILLER_32_189
*998 FILLER_32_195
*999 FILLER_32_197
*1000 FILLER_32_209
*1001 FILLER_32_221
*1002 FILLER_32_233
*1003 FILLER_32_245
*1004 FILLER_32_251
*1005 FILLER_32_253
*1006 FILLER_32_265
*1007 FILLER_32_27
*1008 FILLER_32_277
*1009 FILLER_32_289
*1010 FILLER_32_29
*1011 FILLER_32_297
*1012 FILLER_32_3
*1013 FILLER_32_41
*1014 FILLER_32_53
*1015 FILLER_32_65
*1016 FILLER_32_77
*1017 FILLER_32_83
*1018 FILLER_32_85
*1019 FILLER_32_97
*1020 FILLER_33_105
*1021 FILLER_33_111
*1022 FILLER_33_113
*1023 FILLER_33_125
*1024 FILLER_33_137
*1025 FILLER_33_149
*1026 FILLER_33_15
*1027 FILLER_33_161
*1028 FILLER_33_167
*1029 FILLER_33_169
*1030 FILLER_33_181
*1031 FILLER_33_193
*1032 FILLER_33_205
*1033 FILLER_33_217
*1034 FILLER_33_223
*1035 FILLER_33_225
*1036 FILLER_33_237
*1037 FILLER_33_249
*1038 FILLER_33_261
*1039 FILLER_33_27
*1040 FILLER_33_273
*1041 FILLER_33_279
*1042 FILLER_33_281
*1043 FILLER_33_293
*1044 FILLER_33_3
*1045 FILLER_33_39
*1046 FILLER_33_51
*1047 FILLER_33_55
*1048 FILLER_33_57
*1049 FILLER_33_69
*1050 FILLER_33_81
*1051 FILLER_33_93
*1052 FILLER_34_109
*1053 FILLER_34_121
*1054 FILLER_34_133
*1055 FILLER_34_139
*1056 FILLER_34_141
*1057 FILLER_34_15
*1058 FILLER_34_159
*1059 FILLER_34_171
*1060 FILLER_34_183
*1061 FILLER_34_195
*1062 FILLER_34_197
*1063 FILLER_34_209
*1064 FILLER_34_221
*1065 FILLER_34_233
*1066 FILLER_34_245
*1067 FILLER_34_251
*1068 FILLER_34_253
*1069 FILLER_34_265
*1070 FILLER_34_27
*1071 FILLER_34_277
*1072 FILLER_34_289
*1073 FILLER_34_29
*1074 FILLER_34_297
*1075 FILLER_34_3
*1076 FILLER_34_41
*1077 FILLER_34_53
*1078 FILLER_34_65
*1079 FILLER_34_77
*1080 FILLER_34_83
*1081 FILLER_34_85
*1082 FILLER_34_97
*1083 FILLER_35_105
*1084 FILLER_35_111
*1085 FILLER_35_113
*1086 FILLER_35_125
*1087 FILLER_35_137
*1088 FILLER_35_149
*1089 FILLER_35_15
*1090 FILLER_35_161
*1091 FILLER_35_167
*1092 FILLER_35_169
*1093 FILLER_35_181
*1094 FILLER_35_193
*1095 FILLER_35_205
*1096 FILLER_35_217
*1097 FILLER_35_223
*1098 FILLER_35_225
*1099 FILLER_35_237
*1100 FILLER_35_249
*1101 FILLER_35_261
*1102 FILLER_35_27
*1103 FILLER_35_273
*1104 FILLER_35_279
*1105 FILLER_35_281
*1106 FILLER_35_293
*1107 FILLER_35_3
*1108 FILLER_35_39
*1109 FILLER_35_51
*1110 FILLER_35_55
*1111 FILLER_35_57
*1112 FILLER_35_69
*1113 FILLER_35_81
*1114 FILLER_35_93
*1115 FILLER_36_109
*1116 FILLER_36_117
*1117 FILLER_36_134
*1118 FILLER_36_141
*1119 FILLER_36_15
*1120 FILLER_36_153
*1121 FILLER_36_165
*1122 FILLER_36_177
*1123 FILLER_36_189
*1124 FILLER_36_195
*1125 FILLER_36_197
*1126 FILLER_36_209
*1127 FILLER_36_221
*1128 FILLER_36_233
*1129 FILLER_36_245
*1130 FILLER_36_251
*1131 FILLER_36_253
*1132 FILLER_36_265
*1133 FILLER_36_27
*1134 FILLER_36_277
*1135 FILLER_36_289
*1136 FILLER_36_29
*1137 FILLER_36_297
*1138 FILLER_36_3
*1139 FILLER_36_41
*1140 FILLER_36_53
*1141 FILLER_36_65
*1142 FILLER_36_77
*1143 FILLER_36_83
*1144 FILLER_36_85
*1145 FILLER_36_97
*1146 FILLER_37_105
*1147 FILLER_37_111
*1148 FILLER_37_113
*1149 FILLER_37_125
*1150 FILLER_37_131
*1151 FILLER_37_148
*1152 FILLER_37_15
*1153 FILLER_37_160
*1154 FILLER_37_169
*1155 FILLER_37_181
*1156 FILLER_37_193
*1157 FILLER_37_205
*1158 FILLER_37_217
*1159 FILLER_37_223
*1160 FILLER_37_225
*1161 FILLER_37_237
*1162 FILLER_37_249
*1163 FILLER_37_261
*1164 FILLER_37_27
*1165 FILLER_37_273
*1166 FILLER_37_279
*1167 FILLER_37_281
*1168 FILLER_37_293
*1169 FILLER_37_3
*1170 FILLER_37_39
*1171 FILLER_37_51
*1172 FILLER_37_55
*1173 FILLER_37_57
*1174 FILLER_37_69
*1175 FILLER_37_81
*1176 FILLER_37_93
*1177 FILLER_38_109
*1178 FILLER_38_117
*1179 FILLER_38_125
*1180 FILLER_38_137
*1181 FILLER_38_141
*1182 FILLER_38_15
*1183 FILLER_38_159
*1184 FILLER_38_165
*1185 FILLER_38_169
*1186 FILLER_38_181
*1187 FILLER_38_193
*1188 FILLER_38_197
*1189 FILLER_38_209
*1190 FILLER_38_221
*1191 FILLER_38_233
*1192 FILLER_38_245
*1193 FILLER_38_251
*1194 FILLER_38_253
*1195 FILLER_38_265
*1196 FILLER_38_27
*1197 FILLER_38_277
*1198 FILLER_38_289
*1199 FILLER_38_29
*1200 FILLER_38_297
*1201 FILLER_38_3
*1202 FILLER_38_41
*1203 FILLER_38_53
*1204 FILLER_38_65
*1205 FILLER_38_77
*1206 FILLER_38_83
*1207 FILLER_38_85
*1208 FILLER_38_97
*1209 FILLER_39_105
*1210 FILLER_39_111
*1211 FILLER_39_113
*1212 FILLER_39_131
*1213 FILLER_39_143
*1214 FILLER_39_15
*1215 FILLER_39_150
*1216 FILLER_39_162
*1217 FILLER_39_169
*1218 FILLER_39_181
*1219 FILLER_39_193
*1220 FILLER_39_205
*1221 FILLER_39_217
*1222 FILLER_39_223
*1223 FILLER_39_225
*1224 FILLER_39_237
*1225 FILLER_39_249
*1226 FILLER_39_261
*1227 FILLER_39_27
*1228 FILLER_39_273
*1229 FILLER_39_279
*1230 FILLER_39_281
*1231 FILLER_39_293
*1232 FILLER_39_3
*1233 FILLER_39_39
*1234 FILLER_39_51
*1235 FILLER_39_55
*1236 FILLER_39_57
*1237 FILLER_39_69
*1238 FILLER_39_81
*1239 FILLER_39_93
*1240 FILLER_3_105
*1241 FILLER_3_111
*1242 FILLER_3_113
*1243 FILLER_3_125
*1244 FILLER_3_137
*1245 FILLER_3_149
*1246 FILLER_3_15
*1247 FILLER_3_161
*1248 FILLER_3_167
*1249 FILLER_3_169
*1250 FILLER_3_181
*1251 FILLER_3_193
*1252 FILLER_3_205
*1253 FILLER_3_217
*1254 FILLER_3_223
*1255 FILLER_3_225
*1256 FILLER_3_237
*1257 FILLER_3_249
*1258 FILLER_3_261
*1259 FILLER_3_27
*1260 FILLER_3_273
*1261 FILLER_3_279
*1262 FILLER_3_281
*1263 FILLER_3_293
*1264 FILLER_3_3
*1265 FILLER_3_39
*1266 FILLER_3_51
*1267 FILLER_3_55
*1268 FILLER_3_57
*1269 FILLER_3_69
*1270 FILLER_3_81
*1271 FILLER_3_93
*1272 FILLER_40_109
*1273 FILLER_40_121
*1274 FILLER_40_129
*1275 FILLER_40_138
*1276 FILLER_40_141
*1277 FILLER_40_15
*1278 FILLER_40_150
*1279 FILLER_40_162
*1280 FILLER_40_174
*1281 FILLER_40_186
*1282 FILLER_40_194
*1283 FILLER_40_197
*1284 FILLER_40_209
*1285 FILLER_40_221
*1286 FILLER_40_233
*1287 FILLER_40_245
*1288 FILLER_40_251
*1289 FILLER_40_253
*1290 FILLER_40_265
*1291 FILLER_40_27
*1292 FILLER_40_277
*1293 FILLER_40_289
*1294 FILLER_40_29
*1295 FILLER_40_297
*1296 FILLER_40_3
*1297 FILLER_40_41
*1298 FILLER_40_53
*1299 FILLER_40_65
*1300 FILLER_40_77
*1301 FILLER_40_83
*1302 FILLER_40_85
*1303 FILLER_40_97
*1304 FILLER_41_105
*1305 FILLER_41_111
*1306 FILLER_41_113
*1307 FILLER_41_125
*1308 FILLER_41_131
*1309 FILLER_41_137
*1310 FILLER_41_147
*1311 FILLER_41_15
*1312 FILLER_41_153
*1313 FILLER_41_163
*1314 FILLER_41_167
*1315 FILLER_41_169
*1316 FILLER_41_181
*1317 FILLER_41_193
*1318 FILLER_41_205
*1319 FILLER_41_217
*1320 FILLER_41_223
*1321 FILLER_41_225
*1322 FILLER_41_237
*1323 FILLER_41_249
*1324 FILLER_41_261
*1325 FILLER_41_27
*1326 FILLER_41_273
*1327 FILLER_41_279
*1328 FILLER_41_281
*1329 FILLER_41_293
*1330 FILLER_41_3
*1331 FILLER_41_39
*1332 FILLER_41_51
*1333 FILLER_41_55
*1334 FILLER_41_57
*1335 FILLER_41_69
*1336 FILLER_41_81
*1337 FILLER_41_93
*1338 FILLER_42_109
*1339 FILLER_42_121
*1340 FILLER_42_133
*1341 FILLER_42_138
*1342 FILLER_42_141
*1343 FILLER_42_146
*1344 FILLER_42_15
*1345 FILLER_42_154
*1346 FILLER_42_159
*1347 FILLER_42_171
*1348 FILLER_42_188
*1349 FILLER_42_197
*1350 FILLER_42_209
*1351 FILLER_42_221
*1352 FILLER_42_233
*1353 FILLER_42_245
*1354 FILLER_42_251
*1355 FILLER_42_253
*1356 FILLER_42_265
*1357 FILLER_42_27
*1358 FILLER_42_277
*1359 FILLER_42_289
*1360 FILLER_42_29
*1361 FILLER_42_297
*1362 FILLER_42_3
*1363 FILLER_42_41
*1364 FILLER_42_53
*1365 FILLER_42_65
*1366 FILLER_42_77
*1367 FILLER_42_83
*1368 FILLER_42_85
*1369 FILLER_42_97
*1370 FILLER_43_105
*1371 FILLER_43_111
*1372 FILLER_43_113
*1373 FILLER_43_125
*1374 FILLER_43_133
*1375 FILLER_43_140
*1376 FILLER_43_149
*1377 FILLER_43_15
*1378 FILLER_43_161
*1379 FILLER_43_166
*1380 FILLER_43_169
*1381 FILLER_43_187
*1382 FILLER_43_195
*1383 FILLER_43_207
*1384 FILLER_43_219
*1385 FILLER_43_223
*1386 FILLER_43_225
*1387 FILLER_43_237
*1388 FILLER_43_249
*1389 FILLER_43_261
*1390 FILLER_43_27
*1391 FILLER_43_273
*1392 FILLER_43_279
*1393 FILLER_43_281
*1394 FILLER_43_293
*1395 FILLER_43_3
*1396 FILLER_43_39
*1397 FILLER_43_51
*1398 FILLER_43_55
*1399 FILLER_43_57
*1400 FILLER_43_69
*1401 FILLER_43_81
*1402 FILLER_43_93
*1403 FILLER_44_109
*1404 FILLER_44_121
*1405 FILLER_44_133
*1406 FILLER_44_138
*1407 FILLER_44_141
*1408 FILLER_44_146
*1409 FILLER_44_15
*1410 FILLER_44_150
*1411 FILLER_44_154
*1412 FILLER_44_178
*1413 FILLER_44_186
*1414 FILLER_44_194
*1415 FILLER_44_197
*1416 FILLER_44_205
*1417 FILLER_44_217
*1418 FILLER_44_229
*1419 FILLER_44_241
*1420 FILLER_44_249
*1421 FILLER_44_253
*1422 FILLER_44_265
*1423 FILLER_44_27
*1424 FILLER_44_277
*1425 FILLER_44_289
*1426 FILLER_44_29
*1427 FILLER_44_297
*1428 FILLER_44_3
*1429 FILLER_44_41
*1430 FILLER_44_53
*1431 FILLER_44_65
*1432 FILLER_44_77
*1433 FILLER_44_83
*1434 FILLER_44_85
*1435 FILLER_44_97
*1436 FILLER_45_105
*1437 FILLER_45_111
*1438 FILLER_45_113
*1439 FILLER_45_125
*1440 FILLER_45_131
*1441 FILLER_45_149
*1442 FILLER_45_15
*1443 FILLER_45_157
*1444 FILLER_45_162
*1445 FILLER_45_169
*1446 FILLER_45_173
*1447 FILLER_45_180
*1448 FILLER_45_206
*1449 FILLER_45_215
*1450 FILLER_45_223
*1451 FILLER_45_225
*1452 FILLER_45_237
*1453 FILLER_45_249
*1454 FILLER_45_261
*1455 FILLER_45_27
*1456 FILLER_45_273
*1457 FILLER_45_279
*1458 FILLER_45_281
*1459 FILLER_45_293
*1460 FILLER_45_3
*1461 FILLER_45_39
*1462 FILLER_45_51
*1463 FILLER_45_55
*1464 FILLER_45_57
*1465 FILLER_45_69
*1466 FILLER_45_81
*1467 FILLER_45_93
*1468 FILLER_46_109
*1469 FILLER_46_121
*1470 FILLER_46_126
*1471 FILLER_46_138
*1472 FILLER_46_141
*1473 FILLER_46_147
*1474 FILLER_46_15
*1475 FILLER_46_154
*1476 FILLER_46_178
*1477 FILLER_46_191
*1478 FILLER_46_195
*1479 FILLER_46_197
*1480 FILLER_46_207
*1481 FILLER_46_218
*1482 FILLER_46_225
*1483 FILLER_46_237
*1484 FILLER_46_249
*1485 FILLER_46_253
*1486 FILLER_46_265
*1487 FILLER_46_27
*1488 FILLER_46_277
*1489 FILLER_46_289
*1490 FILLER_46_29
*1491 FILLER_46_297
*1492 FILLER_46_3
*1493 FILLER_46_41
*1494 FILLER_46_53
*1495 FILLER_46_65
*1496 FILLER_46_77
*1497 FILLER_46_83
*1498 FILLER_46_85
*1499 FILLER_46_93
*1500 FILLER_46_97
*1501 FILLER_47_107
*1502 FILLER_47_111
*1503 FILLER_47_113
*1504 FILLER_47_118
*1505 FILLER_47_129
*1506 FILLER_47_137
*1507 FILLER_47_143
*1508 FILLER_47_15
*1509 FILLER_47_152
*1510 FILLER_47_160
*1511 FILLER_47_166
*1512 FILLER_47_169
*1513 FILLER_47_180
*1514 FILLER_47_200
*1515 FILLER_47_212
*1516 FILLER_47_222
*1517 FILLER_47_225
*1518 FILLER_47_234
*1519 FILLER_47_243
*1520 FILLER_47_255
*1521 FILLER_47_267
*1522 FILLER_47_27
*1523 FILLER_47_279
*1524 FILLER_47_281
*1525 FILLER_47_293
*1526 FILLER_47_3
*1527 FILLER_47_39
*1528 FILLER_47_51
*1529 FILLER_47_55
*1530 FILLER_47_57
*1531 FILLER_47_69
*1532 FILLER_47_81
*1533 FILLER_48_103
*1534 FILLER_48_109
*1535 FILLER_48_119
*1536 FILLER_48_132
*1537 FILLER_48_141
*1538 FILLER_48_149
*1539 FILLER_48_15
*1540 FILLER_48_157
*1541 FILLER_48_165
*1542 FILLER_48_176
*1543 FILLER_48_189
*1544 FILLER_48_195
*1545 FILLER_48_197
*1546 FILLER_48_209
*1547 FILLER_48_213
*1548 FILLER_48_234
*1549 FILLER_48_238
*1550 FILLER_48_246
*1551 FILLER_48_253
*1552 FILLER_48_265
*1553 FILLER_48_27
*1554 FILLER_48_277
*1555 FILLER_48_289
*1556 FILLER_48_29
*1557 FILLER_48_297
*1558 FILLER_48_3
*1559 FILLER_48_41
*1560 FILLER_48_53
*1561 FILLER_48_65
*1562 FILLER_48_77
*1563 FILLER_48_83
*1564 FILLER_48_85
*1565 FILLER_48_97
*1566 FILLER_49_110
*1567 FILLER_49_113
*1568 FILLER_49_125
*1569 FILLER_49_149
*1570 FILLER_49_15
*1571 FILLER_49_157
*1572 FILLER_49_166
*1573 FILLER_49_169
*1574 FILLER_49_179
*1575 FILLER_49_185
*1576 FILLER_49_206
*1577 FILLER_49_219
*1578 FILLER_49_223
*1579 FILLER_49_225
*1580 FILLER_49_236
*1581 FILLER_49_247
*1582 FILLER_49_259
*1583 FILLER_49_27
*1584 FILLER_49_271
*1585 FILLER_49_279
*1586 FILLER_49_281
*1587 FILLER_49_293
*1588 FILLER_49_3
*1589 FILLER_49_39
*1590 FILLER_49_51
*1591 FILLER_49_55
*1592 FILLER_49_57
*1593 FILLER_49_69
*1594 FILLER_49_81
*1595 FILLER_49_87
*1596 FILLER_4_109
*1597 FILLER_4_121
*1598 FILLER_4_133
*1599 FILLER_4_139
*1600 FILLER_4_141
*1601 FILLER_4_15
*1602 FILLER_4_153
*1603 FILLER_4_165
*1604 FILLER_4_177
*1605 FILLER_4_189
*1606 FILLER_4_195
*1607 FILLER_4_197
*1608 FILLER_4_209
*1609 FILLER_4_221
*1610 FILLER_4_233
*1611 FILLER_4_245
*1612 FILLER_4_251