*SPEF "ieee 1481-1999"
*DESIGN "andrewm_parallel_to_uart"
*DATE "11:11:11 Fri 11 11, 1111"
*VENDOR "OpenRCX"
*PROGRAM "Parallel Extraction"
*VERSION "1.0"
*DESIGN_FLOW "NAME_SCOPE LOCAL" "PIN_CAP NONE"
*DIVIDER /
*DELIMITER :
*BUS_DELIMITER []
*T_UNIT 1 NS
*C_UNIT 1 PF
*R_UNIT 1 OHM
*L_UNIT 1 HENRY

*NAME_MAP
*1 io_in[0]
*2 io_in[1]
*3 io_in[2]
*4 io_in[3]
*5 io_in[4]
*6 io_in[5]
*7 io_in[6]
*8 io_in[7]
*9 io_out[0]
*10 net8
*11 net9
*12 net10
*13 net11
*14 net12
*15 net13
*16 net14
*19 _000_
*20 _001_
*21 _002_
*22 _003_
*23 _004_
*24 _005_
*25 _006_
*26 _007_
*27 _008_
*28 _009_
*29 _010_
*30 _011_
*31 _012_
*32 _013_
*33 _014_
*34 _015_
*35 _016_
*36 _017_
*37 _018_
*38 _019_
*39 _020_
*40 _021_
*41 _022_
*42 _023_
*43 _024_
*44 _025_
*45 _026_
*46 _027_
*47 _028_
*48 _029_
*49 _030_
*50 _031_
*51 _032_
*52 _033_
*53 _034_
*54 _035_
*55 _036_
*56 _037_
*57 _038_
*58 _039_
*59 _040_
*60 _041_
*61 _042_
*62 _043_
*63 _044_
*64 _045_
*65 _046_
*66 _047_
*67 _048_
*68 _049_
*69 _050_
*70 _051_
*71 _052_
*72 _053_
*73 _054_
*74 _055_
*75 _056_
*76 _057_
*77 _058_
*78 _059_
*79 _060_
*80 _061_
*81 _062_
*82 _063_
*83 _064_
*84 _065_
*85 _066_
*86 _067_
*87 _068_
*88 _069_
*89 _070_
*90 _071_
*91 _072_
*92 _073_
*93 _074_
*94 _075_
*95 _076_
*96 _077_
*97 _078_
*98 _079_
*99 _080_
*100 _081_
*101 _082_
*102 _083_
*103 _084_
*104 _085_
*105 _086_
*106 _087_
*107 _088_
*108 _089_
*109 _090_
*110 _091_
*111 _092_
*112 _093_
*113 _094_
*114 _095_
*115 baud_counter\[0\]
*116 baud_counter\[1\]
*117 baud_counter\[2\]
*118 baud_counter\[3\]
*119 baud_counter\[4\]
*120 baud_counter\[5\]
*121 baud_counter\[6\]
*122 baud_counter\[7\]
*123 bit_counter\[0\]
*124 bit_counter\[1\]
*125 bit_counter\[2\]
*126 clknet_0_io_in[0]
*127 clknet_1_0__leaf_io_in[0]
*128 clknet_1_1__leaf_io_in[0]
*129 data\[0\]
*130 data\[1\]
*131 data\[2\]
*132 data\[3\]
*133 data\[4\]
*134 data\[5\]
*135 data\[6\]
*136 lsb_data\[0\]
*137 lsb_data\[1\]
*138 lsb_data\[2\]
*139 lsb_data\[3\]
*140 msb_data\[0\]
*141 msb_data\[1\]
*142 msb_data\[2\]
*143 net1
*144 net2
*145 net3
*146 net4
*147 net5
*148 net6
*149 net7
*150 transmitting
*151 uart_tx
*152 ANTENNA_1
*153 FILLER_0_103
*154 FILLER_0_111
*155 FILLER_0_113
*156 FILLER_0_125
*157 FILLER_0_137
*158 FILLER_0_141
*159 FILLER_0_153
*160 FILLER_0_165
*161 FILLER_0_169
*162 FILLER_0_181
*163 FILLER_0_193
*164 FILLER_0_197
*165 FILLER_0_209
*166 FILLER_0_221
*167 FILLER_0_225
*168 FILLER_0_237
*169 FILLER_0_249
*170 FILLER_0_253
*171 FILLER_0_26
*172 FILLER_0_265
*173 FILLER_0_277
*174 FILLER_0_281
*175 FILLER_0_29
*176 FILLER_0_293
*177 FILLER_0_3
*178 FILLER_0_49
*179 FILLER_0_55
*180 FILLER_0_57
*181 FILLER_0_76
*182 FILLER_0_85
*183 FILLER_0_9
*184 FILLER_10_109
*185 FILLER_10_121
*186 FILLER_10_133
*187 FILLER_10_139
*188 FILLER_10_141
*189 FILLER_10_153
*190 FILLER_10_165
*191 FILLER_10_177
*192 FILLER_10_189
*193 FILLER_10_195
*194 FILLER_10_197
*195 FILLER_10_209
*196 FILLER_10_21
*197 FILLER_10_221
*198 FILLER_10_233
*199 FILLER_10_245
*200 FILLER_10_251
*201 FILLER_10_253
*202 FILLER_10_265
*203 FILLER_10_27
*204 FILLER_10_277
*205 FILLER_10_289
*206 FILLER_10_29
*207 FILLER_10_297
*208 FILLER_10_3
*209 FILLER_10_41
*210 FILLER_10_53
*211 FILLER_10_65
*212 FILLER_10_77
*213 FILLER_10_83
*214 FILLER_10_85
*215 FILLER_10_97
*216 FILLER_11_105
*217 FILLER_11_111
*218 FILLER_11_113
*219 FILLER_11_126
*220 FILLER_11_138
*221 FILLER_11_15
*222 FILLER_11_150
*223 FILLER_11_162
*224 FILLER_11_169
*225 FILLER_11_181
*226 FILLER_11_193
*227 FILLER_11_205
*228 FILLER_11_217
*229 FILLER_11_223
*230 FILLER_11_225
*231 FILLER_11_23
*232 FILLER_11_237
*233 FILLER_11_249
*234 FILLER_11_261
*235 FILLER_11_273
*236 FILLER_11_279
*237 FILLER_11_281
*238 FILLER_11_29
*239 FILLER_11_293
*240 FILLER_11_3
*241 FILLER_11_41
*242 FILLER_11_53
*243 FILLER_11_57
*244 FILLER_11_63
*245 FILLER_11_70
*246 FILLER_11_8
*247 FILLER_11_81
*248 FILLER_11_93
*249 FILLER_12_104
*250 FILLER_12_116
*251 FILLER_12_122
*252 FILLER_12_134
*253 FILLER_12_14
*254 FILLER_12_141
*255 FILLER_12_153
*256 FILLER_12_165
*257 FILLER_12_177
*258 FILLER_12_189
*259 FILLER_12_195
*260 FILLER_12_197
*261 FILLER_12_209
*262 FILLER_12_221
*263 FILLER_12_233
*264 FILLER_12_245
*265 FILLER_12_251
*266 FILLER_12_253
*267 FILLER_12_26
*268 FILLER_12_265
*269 FILLER_12_277
*270 FILLER_12_289
*271 FILLER_12_29
*272 FILLER_12_297
*273 FILLER_12_3
*274 FILLER_12_39
*275 FILLER_12_51
*276 FILLER_12_78
*277 FILLER_12_85
*278 FILLER_12_92
*279 FILLER_13_100
*280 FILLER_13_113
*281 FILLER_13_121
*282 FILLER_13_129
*283 FILLER_13_141
*284 FILLER_13_15
*285 FILLER_13_153
*286 FILLER_13_165
*287 FILLER_13_169
*288 FILLER_13_181
*289 FILLER_13_19
*290 FILLER_13_193
*291 FILLER_13_205
*292 FILLER_13_217
*293 FILLER_13_223
*294 FILLER_13_225
*295 FILLER_13_237
*296 FILLER_13_249
*297 FILLER_13_25
*298 FILLER_13_261
*299 FILLER_13_273
*300 FILLER_13_279
*301 FILLER_13_281
*302 FILLER_13_293
*303 FILLER_13_3
*304 FILLER_13_37
*305 FILLER_13_45
*306 FILLER_13_54
*307 FILLER_13_57
*308 FILLER_13_69
*309 FILLER_13_75
*310 FILLER_13_88
*311 FILLER_13_96
*312 FILLER_14_109
*313 FILLER_14_121
*314 FILLER_14_133
*315 FILLER_14_139
*316 FILLER_14_141
*317 FILLER_14_153
*318 FILLER_14_158
*319 FILLER_14_170
*320 FILLER_14_182
*321 FILLER_14_194
*322 FILLER_14_197
*323 FILLER_14_209
*324 FILLER_14_221
*325 FILLER_14_23
*326 FILLER_14_233
*327 FILLER_14_245
*328 FILLER_14_251
*329 FILLER_14_253
*330 FILLER_14_265
*331 FILLER_14_27
*332 FILLER_14_277
*333 FILLER_14_289
*334 FILLER_14_29
*335 FILLER_14_297
*336 FILLER_14_3
*337 FILLER_14_41
*338 FILLER_14_58
*339 FILLER_14_65
*340 FILLER_14_82
*341 FILLER_14_85
*342 FILLER_14_97
*343 FILLER_15_100
*344 FILLER_15_113
*345 FILLER_15_125
*346 FILLER_15_13
*347 FILLER_15_137
*348 FILLER_15_142
*349 FILLER_15_154
*350 FILLER_15_166
*351 FILLER_15_169
*352 FILLER_15_181
*353 FILLER_15_193
*354 FILLER_15_205
*355 FILLER_15_217
*356 FILLER_15_22
*357 FILLER_15_223
*358 FILLER_15_225
*359 FILLER_15_237
*360 FILLER_15_249
*361 FILLER_15_261
*362 FILLER_15_273
*363 FILLER_15_279
*364 FILLER_15_281
*365 FILLER_15_293
*366 FILLER_15_3
*367 FILLER_15_34
*368 FILLER_15_46
*369 FILLER_15_54
*370 FILLER_15_57
*371 FILLER_15_67
*372 FILLER_15_78
*373 FILLER_15_90
*374 FILLER_15_96
*375 FILLER_16_101
*376 FILLER_16_108
*377 FILLER_16_120
*378 FILLER_16_132
*379 FILLER_16_141
*380 FILLER_16_149
*381 FILLER_16_161
*382 FILLER_16_173
*383 FILLER_16_18
*384 FILLER_16_185
*385 FILLER_16_193
*386 FILLER_16_197
*387 FILLER_16_209
*388 FILLER_16_221
*389 FILLER_16_233
*390 FILLER_16_245
*391 FILLER_16_251
*392 FILLER_16_253
*393 FILLER_16_26
*394 FILLER_16_265
*395 FILLER_16_277
*396 FILLER_16_289
*397 FILLER_16_29
*398 FILLER_16_297
*399 FILLER_16_3
*400 FILLER_16_41
*401 FILLER_16_45
*402 FILLER_16_53
*403 FILLER_16_65
*404 FILLER_16_77
*405 FILLER_16_83
*406 FILLER_16_85
*407 FILLER_16_9
*408 FILLER_16_93
*409 FILLER_17_107
*410 FILLER_17_111
*411 FILLER_17_113
*412 FILLER_17_128
*413 FILLER_17_140
*414 FILLER_17_152
*415 FILLER_17_164
*416 FILLER_17_169
*417 FILLER_17_181
*418 FILLER_17_193
*419 FILLER_17_20
*420 FILLER_17_205
*421 FILLER_17_217
*422 FILLER_17_223
*423 FILLER_17_225
*424 FILLER_17_237
*425 FILLER_17_249
*426 FILLER_17_261
*427 FILLER_17_273
*428 FILLER_17_279
*429 FILLER_17_281
*430 FILLER_17_293
*431 FILLER_17_3
*432 FILLER_17_32
*433 FILLER_17_44
*434 FILLER_17_51
*435 FILLER_17_55
*436 FILLER_17_57
*437 FILLER_17_63
*438 FILLER_17_75
*439 FILLER_17_8
*440 FILLER_17_83
*441 FILLER_17_95
*442 FILLER_18_109
*443 FILLER_18_11
*444 FILLER_18_121
*445 FILLER_18_133
*446 FILLER_18_139
*447 FILLER_18_141
*448 FILLER_18_153
*449 FILLER_18_165
*450 FILLER_18_177
*451 FILLER_18_189
*452 FILLER_18_195
*453 FILLER_18_197
*454 FILLER_18_209
*455 FILLER_18_22
*456 FILLER_18_221
*457 FILLER_18_233
*458 FILLER_18_245
*459 FILLER_18_251
*460 FILLER_18_253
*461 FILLER_18_265
*462 FILLER_18_277
*463 FILLER_18_289
*464 FILLER_18_29
*465 FILLER_18_297
*466 FILLER_18_3
*467 FILLER_18_41
*468 FILLER_18_53
*469 FILLER_18_62
*470 FILLER_18_69
*471 FILLER_18_81
*472 FILLER_18_85
*473 FILLER_18_97
*474 FILLER_19_105
*475 FILLER_19_111
*476 FILLER_19_113
*477 FILLER_19_125
*478 FILLER_19_136
*479 FILLER_19_148
*480 FILLER_19_16
*481 FILLER_19_160
*482 FILLER_19_169
*483 FILLER_19_181
*484 FILLER_19_193
*485 FILLER_19_205
*486 FILLER_19_217
*487 FILLER_19_22
*488 FILLER_19_223
*489 FILLER_19_225
*490 FILLER_19_237
*491 FILLER_19_249
*492 FILLER_19_261
*493 FILLER_19_273
*494 FILLER_19_279
*495 FILLER_19_281
*496 FILLER_19_293
*497 FILLER_19_3
*498 FILLER_19_30
*499 FILLER_19_36
*500 FILLER_19_42
*501 FILLER_19_48
*502 FILLER_19_57
*503 FILLER_19_69
*504 FILLER_19_8
*505 FILLER_19_81
*506 FILLER_19_93
*507 FILLER_1_110
*508 FILLER_1_113
*509 FILLER_1_121
*510 FILLER_1_126
*511 FILLER_1_138
*512 FILLER_1_15
*513 FILLER_1_150
*514 FILLER_1_162
*515 FILLER_1_169
*516 FILLER_1_181
*517 FILLER_1_193
*518 FILLER_1_205
*519 FILLER_1_217
*520 FILLER_1_223
*521 FILLER_1_225
*522 FILLER_1_237
*523 FILLER_1_249
*524 FILLER_1_261
*525 FILLER_1_273
*526 FILLER_1_279
*527 FILLER_1_281
*528 FILLER_1_293
*529 FILLER_1_3
*530 FILLER_1_36
*531 FILLER_1_43
*532 FILLER_1_55
*533 FILLER_1_76
*534 FILLER_1_80
*535 FILLER_1_98
*536 FILLER_20_109
*537 FILLER_20_121
*538 FILLER_20_129
*539 FILLER_20_13
*540 FILLER_20_137
*541 FILLER_20_141
*542 FILLER_20_153
*543 FILLER_20_165
*544 FILLER_20_17
*545 FILLER_20_177
*546 FILLER_20_189
*547 FILLER_20_195
*548 FILLER_20_197
*549 FILLER_20_209
*550 FILLER_20_221
*551 FILLER_20_233
*552 FILLER_20_245
*553 FILLER_20_251
*554 FILLER_20_253
*555 FILLER_20_26
*556 FILLER_20_265
*557 FILLER_20_277
*558 FILLER_20_289
*559 FILLER_20_29
*560 FILLER_20_297
*561 FILLER_20_3
*562 FILLER_20_41
*563 FILLER_20_53
*564 FILLER_20_65
*565 FILLER_20_77
*566 FILLER_20_83
*567 FILLER_20_85
*568 FILLER_20_97
*569 FILLER_21_105
*570 FILLER_21_111
*571 FILLER_21_113
*572 FILLER_21_12
*573 FILLER_21_125
*574 FILLER_21_133
*575 FILLER_21_140
*576 FILLER_21_152
*577 FILLER_21_164
*578 FILLER_21_169
*579 FILLER_21_181
*580 FILLER_21_193
*581 FILLER_21_205
*582 FILLER_21_217
*583 FILLER_21_223
*584 FILLER_21_225
*585 FILLER_21_237
*586 FILLER_21_24
*587 FILLER_21_249
*588 FILLER_21_261
*589 FILLER_21_273
*590 FILLER_21_279
*591 FILLER_21_281
*592 FILLER_21_293
*593 FILLER_21_3
*594 FILLER_21_36
*595 FILLER_21_48
*596 FILLER_21_57
*597 FILLER_21_69
*598 FILLER_21_81
*599 FILLER_21_93
*600 FILLER_22_109
*601 FILLER_22_121
*602 FILLER_22_133
*603 FILLER_22_139
*604 FILLER_22_14
*605 FILLER_22_141
*606 FILLER_22_145
*607 FILLER_22_152
*608 FILLER_22_164
*609 FILLER_22_176
*610 FILLER_22_188
*611 FILLER_22_197
*612 FILLER_22_209
*613 FILLER_22_221
*614 FILLER_22_233
*615 FILLER_22_245
*616 FILLER_22_251
*617 FILLER_22_253
*618 FILLER_22_26
*619 FILLER_22_265
*620 FILLER_22_277
*621 FILLER_22_289
*622 FILLER_22_29
*623 FILLER_22_297
*624 FILLER_22_3
*625 FILLER_22_42
*626 FILLER_22_54
*627 FILLER_22_66
*628 FILLER_22_78
*629 FILLER_22_85
*630 FILLER_22_97
*631 FILLER_23_100
*632 FILLER_23_113
*633 FILLER_23_125
*634 FILLER_23_137
*635 FILLER_23_149
*636 FILLER_23_15
*637 FILLER_23_161
*638 FILLER_23_167
*639 FILLER_23_169
*640 FILLER_23_181
*641 FILLER_23_193
*642 FILLER_23_205
*643 FILLER_23_217
*644 FILLER_23_223
*645 FILLER_23_225
*646 FILLER_23_237
*647 FILLER_23_249
*648 FILLER_23_26
*649 FILLER_23_261
*650 FILLER_23_273
*651 FILLER_23_279
*652 FILLER_23_281
*653 FILLER_23_293
*654 FILLER_23_3
*655 FILLER_23_35
*656 FILLER_23_39
*657 FILLER_23_44
*658 FILLER_23_57
*659 FILLER_23_66
*660 FILLER_23_72
*661 FILLER_23_76
*662 FILLER_23_88
*663 FILLER_24_106
*664 FILLER_24_118
*665 FILLER_24_125
*666 FILLER_24_137
*667 FILLER_24_141
*668 FILLER_24_153
*669 FILLER_24_165
*670 FILLER_24_17
*671 FILLER_24_177
*672 FILLER_24_189
*673 FILLER_24_195
*674 FILLER_24_197
*675 FILLER_24_209
*676 FILLER_24_221
*677 FILLER_24_233
*678 FILLER_24_245
*679 FILLER_24_25
*680 FILLER_24_251
*681 FILLER_24_253
*682 FILLER_24_265
*683 FILLER_24_277
*684 FILLER_24_289
*685 FILLER_24_29
*686 FILLER_24_297
*687 FILLER_24_3
*688 FILLER_24_41
*689 FILLER_24_53
*690 FILLER_24_65
*691 FILLER_24_77
*692 FILLER_24_83
*693 FILLER_24_85
*694 FILLER_24_94
*695 FILLER_25_101
*696 FILLER_25_109
*697 FILLER_25_113
*698 FILLER_25_125
*699 FILLER_25_137
*700 FILLER_25_149
*701 FILLER_25_161
*702 FILLER_25_167
*703 FILLER_25_169
*704 FILLER_25_181
*705 FILLER_25_193
*706 FILLER_25_205
*707 FILLER_25_21
*708 FILLER_25_217
*709 FILLER_25_223
*710 FILLER_25_225
*711 FILLER_25_237
*712 FILLER_25_249
*713 FILLER_25_261
*714 FILLER_25_27
*715 FILLER_25_273
*716 FILLER_25_279
*717 FILLER_25_281
*718 FILLER_25_293
*719 FILLER_25_3
*720 FILLER_25_32
*721 FILLER_25_44
*722 FILLER_25_57
*723 FILLER_25_77
*724 FILLER_25_89
*725 FILLER_25_9
*726 FILLER_26_109
*727 FILLER_26_121
*728 FILLER_26_133
*729 FILLER_26_139
*730 FILLER_26_141
*731 FILLER_26_15
*732 FILLER_26_153
*733 FILLER_26_165
*734 FILLER_26_177
*735 FILLER_26_189
*736 FILLER_26_195
*737 FILLER_26_197
*738 FILLER_26_209
*739 FILLER_26_221
*740 FILLER_26_233
*741 FILLER_26_245
*742 FILLER_26_251
*743 FILLER_26_253
*744 FILLER_26_265
*745 FILLER_26_27
*746 FILLER_26_277
*747 FILLER_26_289
*748 FILLER_26_29
*749 FILLER_26_297
*750 FILLER_26_3
*751 FILLER_26_35
*752 FILLER_26_40
*753 FILLER_26_52
*754 FILLER_26_60
*755 FILLER_26_69
*756 FILLER_26_81
*757 FILLER_26_85
*758 FILLER_26_94
*759 FILLER_27_105
*760 FILLER_27_111
*761 FILLER_27_113
*762 FILLER_27_125
*763 FILLER_27_137
*764 FILLER_27_149
*765 FILLER_27_161
*766 FILLER_27_167
*767 FILLER_27_169
*768 FILLER_27_181
*769 FILLER_27_193
*770 FILLER_27_205
*771 FILLER_27_21
*772 FILLER_27_217
*773 FILLER_27_223
*774 FILLER_27_225
*775 FILLER_27_237
*776 FILLER_27_249
*777 FILLER_27_261
*778 FILLER_27_273
*779 FILLER_27_279
*780 FILLER_27_281
*781 FILLER_27_293
*782 FILLER_27_3
*783 FILLER_27_33
*784 FILLER_27_45
*785 FILLER_27_53
*786 FILLER_27_57
*787 FILLER_27_69
*788 FILLER_27_81
*789 FILLER_27_9
*790 FILLER_27_93
*791 FILLER_28_106
*792 FILLER_28_118
*793 FILLER_28_130
*794 FILLER_28_138
*795 FILLER_28_141
*796 FILLER_28_15
*797 FILLER_28_153
*798 FILLER_28_165
*799 FILLER_28_177
*800 FILLER_28_189
*801 FILLER_28_195
*802 FILLER_28_197
*803 FILLER_28_209
*804 FILLER_28_221
*805 FILLER_28_233
*806 FILLER_28_245
*807 FILLER_28_251
*808 FILLER_28_253
*809 FILLER_28_265
*810 FILLER_28_27
*811 FILLER_28_277
*812 FILLER_28_289
*813 FILLER_28_29
*814 FILLER_28_297
*815 FILLER_28_3
*816 FILLER_28_41
*817 FILLER_28_53
*818 FILLER_28_61
*819 FILLER_28_66
*820 FILLER_28_78
*821 FILLER_28_85
*822 FILLER_28_94
*823 FILLER_29_107
*824 FILLER_29_11
*825 FILLER_29_111
*826 FILLER_29_113
*827 FILLER_29_125
*828 FILLER_29_137
*829 FILLER_29_149
*830 FILLER_29_161
*831 FILLER_29_167
*832 FILLER_29_169
*833 FILLER_29_181
*834 FILLER_29_193
*835 FILLER_29_205
*836 FILLER_29_21
*837 FILLER_29_217
*838 FILLER_29_223
*839 FILLER_29_225
*840 FILLER_29_237
*841 FILLER_29_249
*842 FILLER_29_261
*843 FILLER_29_273
*844 FILLER_29_279
*845 FILLER_29_281
*846 FILLER_29_293
*847 FILLER_29_3
*848 FILLER_29_33
*849 FILLER_29_45
*850 FILLER_29_53
*851 FILLER_29_57
*852 FILLER_29_69
*853 FILLER_29_81
*854 FILLER_29_93
*855 FILLER_2_109
*856 FILLER_2_121
*857 FILLER_2_133
*858 FILLER_2_139
*859 FILLER_2_141
*860 FILLER_2_153
*861 FILLER_2_165
*862 FILLER_2_177
*863 FILLER_2_189
*864 FILLER_2_195
*865 FILLER_2_197
*866 FILLER_2_209
*867 FILLER_2_21
*868 FILLER_2_221
*869 FILLER_2_233
*870 FILLER_2_245
*871 FILLER_2_251
*872 FILLER_2_253
*873 FILLER_2_265
*874 FILLER_2_27
*875 FILLER_2_277
*876 FILLER_2_289
*877 FILLER_2_29
*878 FILLER_2_297
*879 FILLER_2_3
*880 FILLER_2_49
*881 FILLER_2_53
*882 FILLER_2_71
*883 FILLER_2_83
*884 FILLER_2_85
*885 FILLER_2_97
*886 FILLER_30_102
*887 FILLER_30_114
*888 FILLER_30_126
*889 FILLER_30_138
*890 FILLER_30_141
*891 FILLER_30_15
*892 FILLER_30_153
*893 FILLER_30_165
*894 FILLER_30_177
*895 FILLER_30_189
*896 FILLER_30_195
*897 FILLER_30_197
*898 FILLER_30_209
*899 FILLER_30_221
*900 FILLER_30_233
*901 FILLER_30_245
*902 FILLER_30_251
*903 FILLER_30_253
*904 FILLER_30_265
*905 FILLER_30_27
*906 FILLER_30_277
*907 FILLER_30_289
*908 FILLER_30_29
*909 FILLER_30_297
*910 FILLER_30_3
*911 FILLER_30_41
*912 FILLER_30_53
*913 FILLER_30_65
*914 FILLER_30_77
*915 FILLER_30_83
*916 FILLER_30_85
*917 FILLER_31_105
*918 FILLER_31_111
*919 FILLER_31_113
*920 FILLER_31_125
*921 FILLER_31_137
*922 FILLER_31_149
*923 FILLER_31_15
*924 FILLER_31_161
*925 FILLER_31_167
*926 FILLER_31_169
*927 FILLER_31_181
*928 FILLER_31_193
*929 FILLER_31_205
*930 FILLER_31_217
*931 FILLER_31_223
*932 FILLER_31_225
*933 FILLER_31_237
*934 FILLER_31_249
*935 FILLER_31_261
*936 FILLER_31_27
*937 FILLER_31_273
*938 FILLER_31_279
*939 FILLER_31_281
*940 FILLER_31_293
*941 FILLER_31_3
*942 FILLER_31_39
*943 FILLER_31_51
*944 FILLER_31_55
*945 FILLER_31_57
*946 FILLER_31_69
*947 FILLER_31_81
*948 FILLER_31_93
*949 FILLER_32_109
*950 FILLER_32_121
*951 FILLER_32_133
*952 FILLER_32_139
*953 FILLER_32_141
*954 FILLER_32_146
*955 FILLER_32_15
*956 FILLER_32_158
*957 FILLER_32_170
*958 FILLER_32_182
*959 FILLER_32_194
*960 FILLER_32_197
*961 FILLER_32_209
*962 FILLER_32_221
*963 FILLER_32_233
*964 FILLER_32_245
*965 FILLER_32_251
*966 FILLER_32_253
*967 FILLER_32_265
*968 FILLER_32_27
*969 FILLER_32_277
*970 FILLER_32_289
*971 FILLER_32_29
*972 FILLER_32_297
*973 FILLER_32_3
*974 FILLER_32_41
*975 FILLER_32_53
*976 FILLER_32_65
*977 FILLER_32_73
*978 FILLER_32_81
*979 FILLER_32_85
*980 FILLER_32_97
*981 FILLER_33_100
*982 FILLER_33_113
*983 FILLER_33_125
*984 FILLER_33_137
*985 FILLER_33_149
*986 FILLER_33_15
*987 FILLER_33_161
*988 FILLER_33_167
*989 FILLER_33_169
*990 FILLER_33_181
*991 FILLER_33_193
*992 FILLER_33_205
*993 FILLER_33_217
*994 FILLER_33_223
*995 FILLER_33_225
*996 FILLER_33_237
*997 FILLER_33_249
*998 FILLER_33_261
*999 FILLER_33_27
*1000 FILLER_33_273
*1001 FILLER_33_279
*1002 FILLER_33_281
*1003 FILLER_33_293
*1004 FILLER_33_3
*1005 FILLER_33_40
*1006 FILLER_33_52
*1007 FILLER_33_57
*1008 FILLER_33_69
*1009 FILLER_33_76
*1010 FILLER_33_88
*1011 FILLER_34_109
*1012 FILLER_34_121
*1013 FILLER_34_133
*1014 FILLER_34_139
*1015 FILLER_34_141
*1016 FILLER_34_153
*1017 FILLER_34_165
*1018 FILLER_34_177
*1019 FILLER_34_189
*1020 FILLER_34_195
*1021 FILLER_34_197
*1022 FILLER_34_209
*1023 FILLER_34_221
*1024 FILLER_34_233
*1025 FILLER_34_245
*1026 FILLER_34_251
*1027 FILLER_34_253
*1028 FILLER_34_26
*1029 FILLER_34_265
*1030 FILLER_34_277
*1031 FILLER_34_289
*1032 FILLER_34_29
*1033 FILLER_34_297
*1034 FILLER_34_3
*1035 FILLER_34_37
*1036 FILLER_34_46
*1037 FILLER_34_58
*1038 FILLER_34_70
*1039 FILLER_34_76
*1040 FILLER_34_8
*1041 FILLER_34_80
*1042 FILLER_34_85
*1043 FILLER_34_97
*1044 FILLER_35_105
*1045 FILLER_35_111
*1046 FILLER_35_113
*1047 FILLER_35_125
*1048 FILLER_35_137
*1049 FILLER_35_14
*1050 FILLER_35_149
*1051 FILLER_35_161
*1052 FILLER_35_167
*1053 FILLER_35_169
*1054 FILLER_35_181
*1055 FILLER_35_193
*1056 FILLER_35_205
*1057 FILLER_35_217
*1058 FILLER_35_223
*1059 FILLER_35_225
*1060 FILLER_35_237
*1061 FILLER_35_249
*1062 FILLER_35_26
*1063 FILLER_35_261
*1064 FILLER_35_273
*1065 FILLER_35_279
*1066 FILLER_35_281
*1067 FILLER_35_293
*1068 FILLER_35_3
*1069 FILLER_35_38
*1070 FILLER_35_50
*1071 FILLER_35_57
*1072 FILLER_35_69
*1073 FILLER_35_81
*1074 FILLER_35_93
*1075 FILLER_36_109
*1076 FILLER_36_121
*1077 FILLER_36_133
*1078 FILLER_36_139
*1079 FILLER_36_141
*1080 FILLER_36_15
*1081 FILLER_36_153
*1082 FILLER_36_165
*1083 FILLER_36_177
*1084 FILLER_36_189
*1085 FILLER_36_195
*1086 FILLER_36_197
*1087 FILLER_36_209
*1088 FILLER_36_221
*1089 FILLER_36_233
*1090 FILLER_36_245
*1091 FILLER_36_251
*1092 FILLER_36_253
*1093 FILLER_36_26
*1094 FILLER_36_265
*1095 FILLER_36_277
*1096 FILLER_36_289
*1097 FILLER_36_29
*1098 FILLER_36_297
*1099 FILLER_36_3
*1100 FILLER_36_41
*1101 FILLER_36_53
*1102 FILLER_36_65
*1103 FILLER_36_77
*1104 FILLER_36_83
*1105 FILLER_36_85
*1106 FILLER_36_97
*1107 FILLER_37_105
*1108 FILLER_37_11
*1109 FILLER_37_111
*1110 FILLER_37_113
*1111 FILLER_37_125
*1112 FILLER_37_137
*1113 FILLER_37_149
*1114 FILLER_37_161
*1115 FILLER_37_167
*1116 FILLER_37_169
*1117 FILLER_37_181
*1118 FILLER_37_19
*1119 FILLER_37_193
*1120 FILLER_37_205
*1121 FILLER_37_217
*1122 FILLER_37_223
*1123 FILLER_37_225
*1124 FILLER_37_237
*1125 FILLER_37_249
*1126 FILLER_37_261
*1127 FILLER_37_273
*1128 FILLER_37_279
*1129 FILLER_37_281
*1130 FILLER_37_293
*1131 FILLER_37_3
*1132 FILLER_37_31
*1133 FILLER_37_43
*1134 FILLER_37_55
*1135 FILLER_37_57
*1136 FILLER_37_69
*1137 FILLER_37_81
*1138 FILLER_37_93
*1139 FILLER_38_109
*1140 FILLER_38_121
*1141 FILLER_38_133
*1142 FILLER_38_139
*1143 FILLER_38_141
*1144 FILLER_38_15
*1145 FILLER_38_153
*1146 FILLER_38_165
*1147 FILLER_38_177
*1148 FILLER_38_189
*1149 FILLER_38_195
*1150 FILLER_38_197
*1151 FILLER_38_209
*1152 FILLER_38_221
*1153 FILLER_38_233
*1154 FILLER_38_245
*1155 FILLER_38_251
*1156 FILLER_38_253
*1157 FILLER_38_265
*1158 FILLER_38_27
*1159 FILLER_38_277
*1160 FILLER_38_289
*1161 FILLER_38_29
*1162 FILLER_38_297
*1163 FILLER_38_3
*1164 FILLER_38_41
*1165 FILLER_38_53
*1166 FILLER_38_65
*1167 FILLER_38_77
*1168 FILLER_38_83
*1169 FILLER_38_85
*1170 FILLER_38_97
*1171 FILLER_39_101
*1172 FILLER_39_109
*1173 FILLER_39_113
*1174 FILLER_39_125
*1175 FILLER_39_137
*1176 FILLER_39_149
*1177 FILLER_39_161
*1178 FILLER_39_167
*1179 FILLER_39_169
*1180 FILLER_39_181
*1181 FILLER_39_193
*1182 FILLER_39_20
*1183 FILLER_39_205
*1184 FILLER_39_217
*1185 FILLER_39_223
*1186 FILLER_39_225
*1187 FILLER_39_237
*1188 FILLER_39_249
*1189 FILLER_39_261
*1190 FILLER_39_273
*1191 FILLER_39_279
*1192 FILLER_39_281
*1193 FILLER_39_293
*1194 FILLER_39_3
*1195 FILLER_39_32
*1196 FILLER_39_44
*1197 FILLER_39_57
*1198 FILLER_39_65
*1199 FILLER_39_77
*1200 FILLER_39_8
*1201 FILLER_39_89
*1202 FILLER_3_110
*1203 FILLER_3_113
*1204 FILLER_3_120
*1205 FILLER_3_132
*1206 FILLER_3_144
*1207 FILLER_3_156
*1208 FILLER_3_169
*1209 FILLER_3_17
*1210 FILLER_3_181
*1211 FILLER_3_193
*1212 FILLER_3_205
*1213 FILLER_3_217
*1214 FILLER_3_223
*1215 FILLER_3_225
*1216 FILLER_3_237
*1217 FILLER_3_249
*1218 FILLER_3_261
*1219 FILLER_3_273
*1220 FILLER_3_279
*1221 FILLER_3_281
*1222 FILLER_3_293
*1223 FILLER_3_3
*1224 FILLER_3_36
*1225 FILLER_3_48
*1226 FILLER_3_57
*1227 FILLER_3_76
*1228 FILLER_3_86
*1229 FILLER_3_9
*1230 FILLER_3_98
*1231 FILLER_40_109
*1232 FILLER_40_121
*1233 FILLER_40_133
*1234 FILLER_40_139
*1235 FILLER_40_141
*1236 FILLER_40_15
*1237 FILLER_40_153
*1238 FILLER_40_165
*1239 FILLER_40_177
*1240 FILLER_40_189
*1241 FILLER_40_195
*1242 FILLER_40_197
*1243 FILLER_40_209
*1244 FILLER_40_221
*1245 FILLER_40_233
*1246 FILLER_40_245
*1247 FILLER_40_251
*1248 FILLER_40_253
*1249 FILLER_40_265
*1250 FILLER_40_27
*1251 FILLER_40_277
*1252 FILLER_40_289
*1253 FILLER_40_29
*1254 FILLER_40_297
*1255 FILLER_40_3
*1256 FILLER_40_42
*1257 FILLER_40_48
*1258 FILLER_40_54
*1259 FILLER_40_66
*1260 FILLER_40_78
*1261 FILLER_40_85
*1262 FILLER_40_97
*1263 FILLER_41_105
*1264 FILLER_41_111
*1265 FILLER_41_113
*1266 FILLER_41_125
*1267 FILLER_41_137
*1268 FILLER_41_149
*1269 FILLER_41_15
*1270 FILLER_41_161
*1271 FILLER_41_167
*1272 FILLER_41_169
*1273 FILLER_41_181
*1274 FILLER_41_193
*1275 FILLER_41_205
*1276 FILLER_41_217
*1277 FILLER_41_223
*1278 FILLER_41_225
*1279 FILLER_41_237
*1280 FILLER_41_249
*1281 FILLER_41_261
*1282 FILLER_41_27
*1283 FILLER_41_273
*1284 FILLER_41_279
*1285 FILLER_41_281
*1286 FILLER_41_293
*1287 FILLER_41_3
*1288 FILLER_41_39
*1289 FILLER_41_51
*1290 FILLER_41_55
*1291 FILLER_41_57
*1292 FILLER_41_69
*1293 FILLER_41_81
*1294 FILLER_41_93
*1295 FILLER_42_109
*1296 FILLER_42_121
*1297 FILLER_42_133
*1298 FILLER_42_139
*1299 FILLER_42_141
*1300 FILLER_42_153
*1301 FILLER_42_165
*1302 FILLER_42_177
*1303 FILLER_42_189
*1304 FILLER_42_195
*1305 FILLER_42_197
*1306 FILLER_42_20
*1307 FILLER_42_209
*1308 FILLER_42_221
*1309 FILLER_42_233
*1310 FILLER_42_245
*1311 FILLER_42_251
*1312 FILLER_42_253
*1313 FILLER_42_265
*1314 FILLER_42_277
*1315 FILLER_42_289
*1316 FILLER_42_29
*1317 FILLER_42_297
*1318 FILLER_42_3
*1319 FILLER_42_41
*1320 FILLER_42_53
*1321 FILLER_42_65
*1322 FILLER_42_77
*1323 FILLER_42_8
*1324 FILLER_42_83
*1325 FILLER_42_85
*1326 FILLER_42_97
*1327 FILLER_43_105
*1328 FILLER_43_111
*1329 FILLER_43_113
*1330 FILLER_43_125
*1331 FILLER_43_137
*1332 FILLER_43_149
*1333 FILLER_43_15
*1334 FILLER_43_161
*1335 FILLER_43_167
*1336 FILLER_43_169
*1337 FILLER_43_181
*1338 FILLER_43_193
*1339 FILLER_43_205
*1340 FILLER_43_217
*1341 FILLER_43_223
*1342 FILLER_43_225
*1343 FILLER_43_237
*1344 FILLER_43_249
*1345 FILLER_43_261
*1346 FILLER_43_27
*1347 FILLER_43_273
*1348 FILLER_43_279
*1349 FILLER_43_281
*1350 FILLER_43_293
*1351 FILLER_43_3
*1352 FILLER_43_39
*1353 FILLER_43_51
*1354 FILLER_43_55
*1355 FILLER_43_57
*1356 FILLER_43_69
*1357 FILLER_43_81
*1358 FILLER_43_93
*1359 FILLER_44_109
*1360 FILLER_44_121
*1361 FILLER_44_133
*1362 FILLER_44_139
*1363 FILLER_44_141
*1364 FILLER_44_15
*1365 FILLER_44_153
*1366 FILLER_44_165
*1367 FILLER_44_177
*1368 FILLER_44_183
*1369 FILLER_44_189
*1370 FILLER_44_195
*1371 FILLER_44_197
*1372 FILLER_44_209
*1373 FILLER_44_221
*1374 FILLER_44_233
*1375 FILLER_44_245
*1376 FILLER_44_251
*1377 FILLER_44_253
*1378 FILLER_44_265
*1379 FILLER_44_27
*1380 FILLER_44_277
*1381 FILLER_44_289
*1382 FILLER_44_29
*1383 FILLER_44_297
*1384 FILLER_44_3
*1385 FILLER_44_41
*1386 FILLER_44_53
*1387 FILLER_44_65
*1388 FILLER_44_77
*1389 FILLER_44_83
*1390 FILLER_44_85
*1391 FILLER_44_97
*1392 FILLER_45_105
*1393 FILLER_45_111
*1394 FILLER_45_113
*1395 FILLER_45_125
*1396 FILLER_45_137
*1397 FILLER_45_149
*1398 FILLER_45_15
*1399 FILLER_45_161
*1400 FILLER_45_167
*1401 FILLER_45_169
*1402 FILLER_45_181
*1403 FILLER_45_193
*1404 FILLER_45_205
*1405 FILLER_45_217
*1406 FILLER_45_223
*1407 FILLER_45_225
*1408 FILLER_45_237
*1409 FILLER_45_249
*1410 FILLER_45_261
*1411 FILLER_45_27
*1412 FILLER_45_273
*1413 FILLER_45_279
*1414 FILLER_45_281
*1415 FILLER_45_293
*1416 FILLER_45_3
*1417 FILLER_45_39
*1418 FILLER_45_51
*1419 FILLER_45_55
*1420 FILLER_45_57
*1421 FILLER_45_69
*1422 FILLER_45_81
*1423 FILLER_45_93
*1424 FILLER_46_109
*1425 FILLER_46_121
*1426 FILLER_46_133
*1427 FILLER_46_139
*1428 FILLER_46_141
*1429 FILLER_46_153
*1430 FILLER_46_165
*1431 FILLER_46_177
*1432 FILLER_46_189
*1433 FILLER_46_195
*1434 FILLER_46_197
*1435 FILLER_46_20
*1436 FILLER_46_209
*1437 FILLER_46_221
*1438 FILLER_46_233
*1439 FILLER_46_245
*1440 FILLER_46_251
*1441 FILLER_46_253
*1442 FILLER_46_265
*1443 FILLER_46_277
*1444 FILLER_46_289
*1445 FILLER_46_29
*1446 FILLER_46_297
*1447 FILLER_46_3
*1448 FILLER_46_41
*1449 FILLER_46_53
*1450 FILLER_46_65
*1451 FILLER_46_77
*1452 FILLER_46_8
*1453 FILLER_46_83
*1454 FILLER_46_85
*1455 FILLER_46_97
*1456 FILLER_47_110
*1457 FILLER_47_113
*1458 FILLER_47_125
*1459 FILLER_47_137
*1460 FILLER_47_149
*1461 FILLER_47_15
*1462 FILLER_47_161
*1463 FILLER_47_167
*1464 FILLER_47_169
*1465 FILLER_47_181
*1466 FILLER_47_193
*1467 FILLER_47_205
*1468 FILLER_47_217
*1469 FILLER_47_223
*1470 FILLER_47_225
*1471 FILLER_47_237
*1472 FILLER_47_249
*1473 FILLER_47_261
*1474 FILLER_47_27
*1475 FILLER_47_273
*1476 FILLER_47_279
*1477 FILLER_47_281
*1478 FILLER_47_293
*1479 FILLER_47_3
*1480 FILLER_47_39
*1481 FILLER_47_51
*1482 FILLER_47_55
*1483 FILLER_47_57
*1484 FILLER_47_62
*1485 FILLER_47_74
*1486 FILLER_47_86
*1487 FILLER_47_98
*1488 FILLER_48_109
*1489 FILLER_48_121
*1490 FILLER_48_133
*1491 FILLER_48_139
*1492 FILLER_48_141
*1493 FILLER_48_15
*1494 FILLER_48_153
*1495 FILLER_48_165
*1496 FILLER_48_177
*1497 FILLER_48_189
*1498 FILLER_48_195
*1499 FILLER_48_197
*1500 FILLER_48_209
*1501 FILLER_48_221
*1502 FILLER_48_233
*1503 FILLER_48_245
*1504 FILLER_48_251
*1505 FILLER_48_253
*1506 FILLER_48_265
*1507 FILLER_48_27
*1508 FILLER_48_277
*1509 FILLER_48_289
*1510 FILLER_48_29
*1511 FILLER_48_297
*1512 FILLER_48_3
*1513 FILLER_48_41
*1514 FILLER_48_53
*1515 FILLER_48_65
*1516 FILLER_48_77
*1517 FILLER_48_83
*1518 FILLER_48_85
*1519 FILLER_48_97
*1520 FILLER_49_105
*1521 FILLER_49_111
*1522 FILLER_49_113
*1523 FILLER_49_125
*1524 FILLER_49_137
*1525 FILLER_49_149
*1526 FILLER_49_15
*1527 FILLER_49_161
*1528 FILLER_49_167
*1529 FILLER_49_169
*1530 FILLER_49_181
*1531 FILLER_49_193
*1532 FILLER_49_205
*1533 FILLER_49_217
*1534 FILLER_49_223
*1535 FILLER_49_225
*1536 FILLER_49_237
*1537 FILLER_49_249
*1538 FILLER_49_261
*1539 FILLER_49_27
*1540 FILLER_49_273
*1541 FILLER_49_279
*1542 FILLER_49_281
*1543 FILLER_49_293
*1544 FILLER_49_3
*1545 FILLER_49_39
*1546 FILLER_49_51
*1547 FILLER_49_55
*1548 FILLER_49_57
*1549 FILLER_49_69
*1550 FILLER_49_81
*1551 FILLER_49_93
*1552 FILLER_4_109
*1553 FILLER_4_121
*1554 FILLER_4_133
*1555 FILLER_4_139
*1556 FILLER_4_141
*1557 FILLER_4_153
*1558 FILLER_4_165
*1559 FILLER_4_177
*1560 FILLER_4_189
*1561 FILLER_4_195
*1562 FILLER_4_197
*1563 FILLER_4_209
*1564 FILLER_4_21
*1565 FILLER_4_221
*1566 FILLER_4_233
*1567 FILLER_4_245
*1568 FILLER_4_251
*1569 FILLER_4_253
*1570 FILLER_4_265
*1571 FILLER_4_27
*1572 FILLER_4_277
*1573 FILLER_4_289
*1574 FILLER_4_29
*1575 FILLER_4_297
*1576 FILLER_4_3
*1577 FILLER_4_49
*1578 FILLER_4_69
*1579 FILLER_4_81
*1580 FILLER_4_85
*1581 FILLER_4_97
*1582 FILLER_50_109
*1583 FILLER_50_121
*1584 FILLER_50_133
*1585 FILLER_50_139
*1586 FILLER_50_141
*1587 FILLER_50_153
*1588 FILLER_50_165
*1589 FILLER_50_177
*1590 FILLER_50_189
*1591 FILLER_50_195
*1592 FILLER_50_197
*1593 FILLER_50_20
*1594 FILLER_50_209
*1595 FILLER_50_221
*1596 FILLER_50_233
*1597 FILLER_50_245
*1598 FILLER_50_251
*1599 FILLER_50_253
*1600 FILLER_50_265
*1601 FILLER_50_277
*1602 FILLER_50_289
*1603 FILLER_50_29
*1604 FILLER_50_297
*1605 FILLER_50_3
*1606 FILLER_50_41
*1607 FILLER_50_53
*1608 FILLER_50_65
*1609 FILLER_50_77
*1610 FILLER_50_8
*1611 FILLER_50_83
*1612 FILLER_50_85
*1613 FILLER_50_97
*1614 FILLER_51_105
*1615 FILLER_51_111
*1616 FILLER_51_113
*1617 FILLER_51_125
*1618 FILLER_51_137
*1619 FILLER_51_149
*1620 FILLER_51_15
*1621 FILLER_51_161