*SPEF "ieee 1481-1999"
*DESIGN "aramsey118_freq_counter"
*DATE "11:11:11 Fri 11 11, 1111"
*VENDOR "OpenRCX"
*PROGRAM "Parallel Extraction"
*VERSION "1.0"
*DESIGN_FLOW "NAME_SCOPE LOCAL" "PIN_CAP NONE"
*DIVIDER /
*DELIMITER :
*BUS_DELIMITER []
*T_UNIT 1 NS
*C_UNIT 1 PF
*R_UNIT 1 OHM
*L_UNIT 1 HENRY

*NAME_MAP
*1 io_in[0]
*2 io_in[1]
*3 io_in[2]
*4 io_in[3]
*5 io_in[4]
*6 io_in[5]
*7 io_in[6]
*8 io_in[7]
*9 io_out[0]
*10 io_out[1]
*11 io_out[2]
*12 io_out[3]
*13 io_out[4]
*14 io_out[5]
*15 io_out[6]
*16 io_out[7]
*19 _0000_
*20 _0001_
*21 _0002_
*22 _0003_
*23 _0004_
*24 _0005_
*25 _0006_
*26 _0007_
*27 _0008_
*28 _0009_
*29 _0010_
*30 _0011_
*31 _0012_
*32 _0013_
*33 _0014_
*34 _0015_
*35 _0016_
*36 _0017_
*37 _0018_
*38 _0019_
*39 _0020_
*40 _0021_
*41 _0022_
*42 _0023_
*43 _0024_
*44 _0025_
*45 _0026_
*46 _0027_
*47 _0028_
*48 _0029_
*49 _0030_
*50 _0031_
*51 _0032_
*52 _0033_
*53 _0034_
*54 _0035_
*55 _0036_
*56 _0037_
*57 _0038_
*58 _0039_
*59 _0040_
*60 _0041_
*61 _0042_
*62 _0043_
*63 _0044_
*64 _0045_
*65 _0046_
*66 _0047_
*67 _0048_
*68 _0049_
*69 _0050_
*70 _0051_
*71 _0052_
*72 _0053_
*73 _0054_
*74 _0055_
*75 _0056_
*76 _0057_
*77 _0058_
*78 _0059_
*79 _0060_
*80 _0061_
*81 _0062_
*82 _0063_
*83 _0064_
*84 _0065_
*85 _0066_
*86 _0067_
*87 _0068_
*88 _0069_
*89 _0070_
*90 _0071_
*91 _0072_
*92 _0073_
*93 _0074_
*94 _0075_
*95 _0076_
*96 _0077_
*97 _0078_
*98 _0079_
*99 _0080_
*100 _0081_
*101 _0082_
*102 _0083_
*103 _0084_
*104 _0085_
*105 _0086_
*106 _0087_
*107 _0088_
*108 _0089_
*109 _0090_
*110 _0091_
*111 _0092_
*112 _0093_
*113 _0094_
*114 _0095_
*115 _0096_
*116 _0097_
*117 _0098_
*118 _0099_
*119 _0100_
*120 _0101_
*121 _0102_
*122 _0103_
*123 _0104_
*124 _0105_
*125 _0106_
*126 _0107_
*127 _0108_
*128 _0109_
*129 _0110_
*130 _0111_
*131 _0112_
*132 _0113_
*133 _0114_
*134 _0115_
*135 _0116_
*136 _0117_
*137 _0118_
*138 _0119_
*139 _0120_
*140 _0121_
*141 _0122_
*142 _0123_
*143 _0124_
*144 _0125_
*145 _0126_
*146 _0127_
*147 _0128_
*148 _0129_
*149 _0130_
*150 _0131_
*151 _0132_
*152 _0133_
*153 _0134_
*154 _0135_
*155 _0136_
*156 _0137_
*157 _0138_
*158 _0139_
*159 _0140_
*160 _0141_
*161 _0142_
*162 _0143_
*163 _0144_
*164 _0145_
*165 _0146_
*166 _0147_
*167 _0148_
*168 _0149_
*169 _0150_
*170 _0151_
*171 _0152_
*172 _0153_
*173 _0154_
*174 _0155_
*175 _0156_
*176 _0157_
*177 _0158_
*178 _0159_
*179 _0160_
*180 _0161_
*181 _0162_
*182 _0163_
*183 _0164_
*184 _0165_
*185 _0166_
*186 _0167_
*187 _0168_
*188 _0169_
*189 _0170_
*190 _0171_
*191 _0172_
*192 _0173_
*193 _0174_
*194 _0175_
*195 _0176_
*196 _0177_
*197 _0178_
*198 _0179_
*199 _0180_
*200 _0181_
*201 _0182_
*202 _0183_
*203 _0184_
*204 _0185_
*205 _0186_
*206 _0187_
*207 _0188_
*208 _0189_
*209 _0190_
*210 _0191_
*211 _0192_
*212 _0193_
*213 _0194_
*214 _0195_
*215 _0196_
*216 _0197_
*217 _0198_
*218 _0199_
*219 _0200_
*220 _0201_
*221 _0202_
*222 _0203_
*223 _0204_
*224 _0205_
*225 _0206_
*226 _0207_
*227 _0208_
*228 _0209_
*229 _0210_
*230 _0211_
*231 _0212_
*232 _0213_
*233 _0214_
*234 _0215_
*235 _0216_
*236 _0217_
*237 _0218_
*238 _0219_
*239 _0220_
*240 _0221_
*241 _0222_
*242 _0223_
*243 _0224_
*244 _0225_
*245 _0226_
*246 _0227_
*247 _0228_
*248 _0229_
*249 _0230_
*250 _0231_
*251 _0232_
*252 _0233_
*253 _0234_
*254 _0235_
*255 _0236_
*256 _0237_
*257 _0238_
*258 _0239_
*259 _0240_
*260 _0241_
*261 _0242_
*262 _0243_
*263 _0244_
*264 _0245_
*265 _0246_
*266 _0247_
*267 _0248_
*268 _0249_
*269 _0250_
*270 _0251_
*271 _0252_
*272 _0253_
*273 _0254_
*274 _0255_
*275 _0256_
*276 _0257_
*277 _0258_
*278 _0259_
*279 _0260_
*280 _0261_
*281 _0262_
*282 _0263_
*283 _0264_
*284 _0265_
*285 _0266_
*286 _0267_
*287 _0268_
*288 _0269_
*289 _0270_
*290 _0271_
*291 _0272_
*292 _0273_
*293 _0274_
*294 _0275_
*295 _0276_
*296 _0277_
*297 _0278_
*298 _0279_
*299 _0280_
*300 _0281_
*301 _0282_
*302 _0283_
*303 _0284_
*304 _0285_
*305 _0286_
*306 _0287_
*307 _0288_
*308 _0289_
*309 _0290_
*310 _0291_
*311 _0292_
*312 _0293_
*313 _0294_
*314 _0295_
*315 _0296_
*316 _0297_
*317 _0298_
*318 _0299_
*319 _0300_
*320 _0301_
*321 _0302_
*322 _0303_
*323 _0304_
*324 _0305_
*325 _0306_
*326 _0307_
*327 _0308_
*328 _0309_
*329 _0310_
*330 _0311_
*331 _0312_
*332 _0313_
*333 _0314_
*334 _0315_
*335 _0316_
*336 _0317_
*337 _0318_
*338 _0319_
*339 _0320_
*340 _0321_
*341 _0322_
*342 _0323_
*343 _0324_
*344 _0325_
*345 _0326_
*346 _0327_
*347 _0328_
*348 _0329_
*349 _0330_
*350 _0331_
*351 _0332_
*352 _0333_
*353 _0334_
*354 _0335_
*355 _0336_
*356 _0337_
*357 _0338_
*358 _0339_
*359 _0340_
*360 _0341_
*361 _0342_
*362 _0343_
*363 _0344_
*364 _0345_
*365 _0346_
*366 _0347_
*367 _0348_
*368 _0349_
*369 _0350_
*370 _0351_
*371 _0352_
*372 _0353_
*373 _0354_
*374 _0355_
*375 _0356_
*376 _0357_
*377 _0358_
*378 _0359_
*379 _0360_
*380 _0361_
*381 _0362_
*382 _0363_
*383 _0364_
*384 _0365_
*385 _0366_
*386 _0367_
*387 _0368_
*388 _0369_
*389 _0370_
*390 _0371_
*391 _0372_
*392 _0373_
*393 _0374_
*394 _0375_
*395 _0376_
*396 _0377_
*397 _0378_
*398 _0379_
*399 _0380_
*400 _0381_
*401 _0382_
*402 _0383_
*403 _0384_
*404 _0385_
*405 _0386_
*406 _0387_
*407 _0388_
*408 _0389_
*409 _0390_
*410 _0391_
*411 _0392_
*412 _0393_
*413 _0394_
*414 _0395_
*415 _0396_
*416 _0397_
*417 _0398_
*418 _0399_
*419 _0400_
*420 _0401_
*421 _0402_
*422 _0403_
*423 _0404_
*424 _0405_
*425 _0406_
*426 _0407_
*427 _0408_
*428 _0409_
*429 _0410_
*430 _0411_
*431 _0412_
*432 _0413_
*433 _0414_
*434 _0415_
*435 _0416_
*436 _0417_
*437 _0418_
*438 _0419_
*439 _0420_
*440 _0421_
*441 _0422_
*442 _0423_
*443 _0424_
*444 _0425_
*445 _0426_
*446 _0427_
*447 _0428_
*448 _0429_
*449 _0430_
*450 _0431_
*451 _0432_
*452 _0433_
*453 _0434_
*454 _0435_
*455 _0436_
*456 _0437_
*457 _0438_
*458 _0439_
*459 _0440_
*460 _0441_
*461 _0442_
*462 _0443_
*463 _0444_
*464 _0445_
*465 _0446_
*466 _0447_
*467 _0448_
*468 _0449_
*469 _0450_
*470 _0451_
*471 _0452_
*472 _0453_
*473 _0454_
*474 _0455_
*475 _0456_
*476 _0457_
*477 _0458_
*478 _0459_
*479 _0460_
*480 _0461_
*481 _0462_
*482 _0463_
*483 _0464_
*484 _0465_
*485 _0466_
*486 _0467_
*487 _0468_
*488 _0469_
*489 _0470_
*490 _0471_
*491 _0472_
*492 _0473_
*493 _0474_
*494 _0475_
*495 _0476_
*496 _0477_
*497 _0478_
*498 _0479_
*499 _0480_
*500 _0481_
*501 _0482_
*502 _0483_
*503 _0484_
*504 _0485_
*505 _0486_
*506 _0487_
*507 _0488_
*508 _0489_
*509 _0490_
*510 _0491_
*511 _0492_
*512 _0493_
*513 _0494_
*514 _0495_
*515 _0496_
*516 _0497_
*517 _0498_
*518 _0499_
*519 _0500_
*520 _0501_
*521 _0502_
*522 _0503_
*523 _0504_
*524 _0505_
*525 _0506_
*526 _0507_
*527 _0508_
*528 _0509_
*529 _0510_
*530 _0511_
*531 _0512_
*532 _0513_
*533 _0514_
*534 _0515_
*535 _0516_
*536 clknet_0_io_in[0]
*537 clknet_1_0__leaf_io_in[0]
*538 clknet_1_1__leaf_io_in[0]
*539 clknet_leaf_0_io_in[0]
*540 clknet_leaf_10_io_in[0]
*541 clknet_leaf_11_io_in[0]
*542 clknet_leaf_12_io_in[0]
*543 clknet_leaf_13_io_in[0]
*544 clknet_leaf_1_io_in[0]
*545 clknet_leaf_2_io_in[0]
*546 clknet_leaf_3_io_in[0]
*547 clknet_leaf_4_io_in[0]
*548 clknet_leaf_5_io_in[0]
*549 clknet_leaf_6_io_in[0]
*550 clknet_leaf_7_io_in[0]
*551 clknet_leaf_8_io_in[0]
*552 clknet_leaf_9_io_in[0]
*553 moving_avg\.avg\[0\]
*554 moving_avg\.avg\[1\]
*555 moving_avg\.avg\[2\]
*556 moving_avg\.avg\[3\]
*557 moving_avg\.avg\[4\]
*558 moving_avg\.avg\[5\]
*559 moving_avg\.avg\[6\]
*560 moving_avg\.avg\[7\]
*561 moving_avg\.data_i
*562 moving_avg\.shift_out
*563 moving_avg\.shift_reg\.register\[0\]
*564 moving_avg\.shift_reg\.register\[100\]
*565 moving_avg\.shift_reg\.register\[101\]
*566 moving_avg\.shift_reg\.register\[102\]
*567 moving_avg\.shift_reg\.register\[103\]
*568 moving_avg\.shift_reg\.register\[104\]
*569 moving_avg\.shift_reg\.register\[105\]
*570 moving_avg\.shift_reg\.register\[106\]
*571 moving_avg\.shift_reg\.register\[107\]
*572 moving_avg\.shift_reg\.register\[108\]
*573 moving_avg\.shift_reg\.register\[109\]
*574 moving_avg\.shift_reg\.register\[10\]
*575 moving_avg\.shift_reg\.register\[110\]
*576 moving_avg\.shift_reg\.register\[111\]
*577 moving_avg\.shift_reg\.register\[112\]
*578 moving_avg\.shift_reg\.register\[113\]
*579 moving_avg\.shift_reg\.register\[114\]
*580 moving_avg\.shift_reg\.register\[115\]
*581 moving_avg\.shift_reg\.register\[116\]
*582 moving_avg\.shift_reg\.register\[117\]
*583 moving_avg\.shift_reg\.register\[118\]
*584 moving_avg\.shift_reg\.register\[119\]
*585 moving_avg\.shift_reg\.register\[11\]
*586 moving_avg\.shift_reg\.register\[120\]
*587 moving_avg\.shift_reg\.register\[121\]
*588 moving_avg\.shift_reg\.register\[122\]
*589 moving_avg\.shift_reg\.register\[123\]
*590 moving_avg\.shift_reg\.register\[124\]
*591 moving_avg\.shift_reg\.register\[125\]
*592 moving_avg\.shift_reg\.register\[126\]
*593 moving_avg\.shift_reg\.register\[127\]
*594 moving_avg\.shift_reg\.register\[128\]
*595 moving_avg\.shift_reg\.register\[129\]
*596 moving_avg\.shift_reg\.register\[12\]
*597 moving_avg\.shift_reg\.register\[130\]
*598 moving_avg\.shift_reg\.register\[131\]
*599 moving_avg\.shift_reg\.register\[132\]
*600 moving_avg\.shift_reg\.register\[133\]
*601 moving_avg\.shift_reg\.register\[134\]
*602 moving_avg\.shift_reg\.register\[135\]
*603 moving_avg\.shift_reg\.register\[136\]
*604 moving_avg\.shift_reg\.register\[137\]
*605 moving_avg\.shift_reg\.register\[138\]
*606 moving_avg\.shift_reg\.register\[139\]
*607 moving_avg\.shift_reg\.register\[13\]
*608 moving_avg\.shift_reg\.register\[140\]
*609 moving_avg\.shift_reg\.register\[141\]
*610 moving_avg\.shift_reg\.register\[142\]
*611 moving_avg\.shift_reg\.register\[143\]
*612 moving_avg\.shift_reg\.register\[144\]
*613 moving_avg\.shift_reg\.register\[145\]
*614 moving_avg\.shift_reg\.register\[146\]
*615 moving_avg\.shift_reg\.register\[147\]
*616 moving_avg\.shift_reg\.register\[148\]
*617 moving_avg\.shift_reg\.register\[149\]
*618 moving_avg\.shift_reg\.register\[14\]
*619 moving_avg\.shift_reg\.register\[150\]
*620 moving_avg\.shift_reg\.register\[151\]
*621 moving_avg\.shift_reg\.register\[152\]
*622 moving_avg\.shift_reg\.register\[153\]
*623 moving_avg\.shift_reg\.register\[154\]
*624 moving_avg\.shift_reg\.register\[155\]
*625 moving_avg\.shift_reg\.register\[156\]
*626 moving_avg\.shift_reg\.register\[157\]
*627 moving_avg\.shift_reg\.register\[158\]
*628 moving_avg\.shift_reg\.register\[159\]
*629 moving_avg\.shift_reg\.register\[15\]
*630 moving_avg\.shift_reg\.register\[160\]
*631 moving_avg\.shift_reg\.register\[161\]
*632 moving_avg\.shift_reg\.register\[162\]
*633 moving_avg\.shift_reg\.register\[163\]
*634 moving_avg\.shift_reg\.register\[164\]
*635 moving_avg\.shift_reg\.register\[165\]
*636 moving_avg\.shift_reg\.register\[166\]
*637 moving_avg\.shift_reg\.register\[167\]
*638 moving_avg\.shift_reg\.register\[168\]
*639 moving_avg\.shift_reg\.register\[169\]
*640 moving_avg\.shift_reg\.register\[16\]
*641 moving_avg\.shift_reg\.register\[170\]
*642 moving_avg\.shift_reg\.register\[171\]
*643 moving_avg\.shift_reg\.register\[172\]
*644 moving_avg\.shift_reg\.register\[173\]
*645 moving_avg\.shift_reg\.register\[174\]
*646 moving_avg\.shift_reg\.register\[175\]
*647 moving_avg\.shift_reg\.register\[176\]
*648 moving_avg\.shift_reg\.register\[177\]
*649 moving_avg\.shift_reg\.register\[178\]
*650 moving_avg\.shift_reg\.register\[179\]
*651 moving_avg\.shift_reg\.register\[17\]
*652 moving_avg\.shift_reg\.register\[180\]
*653 moving_avg\.shift_reg\.register\[181\]
*654 moving_avg\.shift_reg\.register\[182\]
*655 moving_avg\.shift_reg\.register\[183\]
*656 moving_avg\.shift_reg\.register\[184\]
*657 moving_avg\.shift_reg\.register\[185\]
*658 moving_avg\.shift_reg\.register\[186\]
*659 moving_avg\.shift_reg\.register\[187\]
*660 moving_avg\.shift_reg\.register\[188\]
*661 moving_avg\.shift_reg\.register\[189\]
*662 moving_avg\.shift_reg\.register\[18\]
*663 moving_avg\.shift_reg\.register\[190\]
*664 moving_avg\.shift_reg\.register\[191\]
*665 moving_avg\.shift_reg\.register\[192\]
*666 moving_avg\.shift_reg\.register\[193\]
*667 moving_avg\.shift_reg\.register\[194\]
*668 moving_avg\.shift_reg\.register\[195\]
*669 moving_avg\.shift_reg\.register\[196\]
*670 moving_avg\.shift_reg\.register\[197\]
*671 moving_avg\.shift_reg\.register\[198\]
*672 moving_avg\.shift_reg\.register\[19\]
*673 moving_avg\.shift_reg\.register\[1\]
*674 moving_avg\.shift_reg\.register\[20\]
*675 moving_avg\.shift_reg\.register\[21\]
*676 moving_avg\.shift_reg\.register\[22\]
*677 moving_avg\.shift_reg\.register\[23\]
*678 moving_avg\.shift_reg\.register\[24\]
*679 moving_avg\.shift_reg\.register\[25\]
*680 moving_avg\.shift_reg\.register\[26\]
*681 moving_avg\.shift_reg\.register\[27\]
*682 moving_avg\.shift_reg\.register\[28\]
*683 moving_avg\.shift_reg\.register\[29\]
*684 moving_avg\.shift_reg\.register\[2\]
*685 moving_avg\.shift_reg\.register\[30\]
*686 moving_avg\.shift_reg\.register\[31\]
*687 moving_avg\.shift_reg\.register\[32\]
*688 moving_avg\.shift_reg\.register\[33\]
*689 moving_avg\.shift_reg\.register\[34\]
*690 moving_avg\.shift_reg\.register\[35\]
*691 moving_avg\.shift_reg\.register\[36\]
*692 moving_avg\.shift_reg\.register\[37\]
*693 moving_avg\.shift_reg\.register\[38\]
*694 moving_avg\.shift_reg\.register\[39\]
*695 moving_avg\.shift_reg\.register\[3\]
*696 moving_avg\.shift_reg\.register\[40\]
*697 moving_avg\.shift_reg\.register\[41\]
*698 moving_avg\.shift_reg\.register\[42\]
*699 moving_avg\.shift_reg\.register\[43\]
*700 moving_avg\.shift_reg\.register\[44\]
*701 moving_avg\.shift_reg\.register\[45\]
*702 moving_avg\.shift_reg\.register\[46\]
*703 moving_avg\.shift_reg\.register\[47\]
*704 moving_avg\.shift_reg\.register\[48\]
*705 moving_avg\.shift_reg\.register\[49\]
*706 moving_avg\.shift_reg\.register\[4\]
*707 moving_avg\.shift_reg\.register\[50\]
*708 moving_avg\.shift_reg\.register\[51\]
*709 moving_avg\.shift_reg\.register\[52\]
*710 moving_avg\.shift_reg\.register\[53\]
*711 moving_avg\.shift_reg\.register\[54\]
*712 moving_avg\.shift_reg\.register\[55\]
*713 moving_avg\.shift_reg\.register\[56\]
*714 moving_avg\.shift_reg\.register\[57\]
*715 moving_avg\.shift_reg\.register\[58\]
*716 moving_avg\.shift_reg\.register\[59\]
*717 moving_avg\.shift_reg\.register\[5\]
*718 moving_avg\.shift_reg\.register\[60\]
*719 moving_avg\.shift_reg\.register\[61\]
*720 moving_avg\.shift_reg\.register\[62\]
*721 moving_avg\.shift_reg\.register\[63\]
*722 moving_avg\.shift_reg\.register\[64\]
*723 moving_avg\.shift_reg\.register\[65\]
*724 moving_avg\.shift_reg\.register\[66\]
*725 moving_avg\.shift_reg\.register\[67\]
*726 moving_avg\.shift_reg\.register\[68\]
*727 moving_avg\.shift_reg\.register\[69\]
*728 moving_avg\.shift_reg\.register\[6\]
*729 moving_avg\.shift_reg\.register\[70\]
*730 moving_avg\.shift_reg\.register\[71\]
*731 moving_avg\.shift_reg\.register\[72\]
*732 moving_avg\.shift_reg\.register\[73\]
*733 moving_avg\.shift_reg\.register\[74\]
*734 moving_avg\.shift_reg\.register\[75\]
*735 moving_avg\.shift_reg\.register\[76\]
*736 moving_avg\.shift_reg\.register\[77\]
*737 moving_avg\.shift_reg\.register\[78\]
*738 moving_avg\.shift_reg\.register\[79\]
*739 moving_avg\.shift_reg\.register\[7\]
*740 moving_avg\.shift_reg\.register\[80\]
*741 moving_avg\.shift_reg\.register\[81\]
*742 moving_avg\.shift_reg\.register\[82\]
*743 moving_avg\.shift_reg\.register\[83\]
*744 moving_avg\.shift_reg\.register\[84\]
*745 moving_avg\.shift_reg\.register\[85\]
*746 moving_avg\.shift_reg\.register\[86\]
*747 moving_avg\.shift_reg\.register\[87\]
*748 moving_avg\.shift_reg\.register\[88\]
*749 moving_avg\.shift_reg\.register\[89\]
*750 moving_avg\.shift_reg\.register\[8\]
*751 moving_avg\.shift_reg\.register\[90\]
*752 moving_avg\.shift_reg\.register\[91\]
*753 moving_avg\.shift_reg\.register\[92\]
*754 moving_avg\.shift_reg\.register\[93\]
*755 moving_avg\.shift_reg\.register\[94\]
*756 moving_avg\.shift_reg\.register\[95\]
*757 moving_avg\.shift_reg\.register\[96\]
*758 moving_avg\.shift_reg\.register\[97\]
*759 moving_avg\.shift_reg\.register\[98\]
*760 moving_avg\.shift_reg\.register\[99\]
*761 moving_avg\.shift_reg\.register\[9\]
*762 net1
*763 net2
*764 seg7\.counter\[0\]
*765 seg7\.counter\[1\]
*766 seg7\.counter\[2\]
*767 seg7\.counter\[3\]
*768 sig_d1
*769 FILLER_0_101
*770 FILLER_0_110
*771 FILLER_0_113
*772 FILLER_0_126
*773 FILLER_0_138
*774 FILLER_0_141
*775 FILLER_0_15
*776 FILLER_0_153
*777 FILLER_0_165
*778 FILLER_0_169
*779 FILLER_0_181
*780 FILLER_0_189
*781 FILLER_0_194
*782 FILLER_0_197
*783 FILLER_0_201
*784 FILLER_0_207
*785 FILLER_0_216
*786 FILLER_0_225
*787 FILLER_0_237
*788 FILLER_0_249
*789 FILLER_0_253
*790 FILLER_0_265
*791 FILLER_0_27
*792 FILLER_0_277
*793 FILLER_0_281
*794 FILLER_0_29
*795 FILLER_0_293
*796 FILLER_0_3
*797 FILLER_0_41
*798 FILLER_0_53
*799 FILLER_0_57
*800 FILLER_0_69
*801 FILLER_0_81
*802 FILLER_0_85
*803 FILLER_0_97
*804 FILLER_10_103
*805 FILLER_10_112
*806 FILLER_10_119
*807 FILLER_10_128
*808 FILLER_10_134
*809 FILLER_10_138
*810 FILLER_10_141
*811 FILLER_10_159
*812 FILLER_10_179
*813 FILLER_10_18
*814 FILLER_10_186
*815 FILLER_10_190
*816 FILLER_10_194
*817 FILLER_10_197
*818 FILLER_10_203
*819 FILLER_10_207
*820 FILLER_10_216
*821 FILLER_10_22
*822 FILLER_10_225
*823 FILLER_10_233
*824 FILLER_10_239
*825 FILLER_10_251
*826 FILLER_10_253
*827 FILLER_10_26
*828 FILLER_10_265
*829 FILLER_10_277
*830 FILLER_10_289
*831 FILLER_10_29
*832 FILLER_10_297
*833 FILLER_10_3
*834 FILLER_10_33
*835 FILLER_10_39
*836 FILLER_10_43
*837 FILLER_10_60
*838 FILLER_10_80
*839 FILLER_10_85
*840 FILLER_10_9
*841 FILLER_11_102
*842 FILLER_11_106
*843 FILLER_11_110
*844 FILLER_11_113
*845 FILLER_11_120
*846 FILLER_11_131
*847 FILLER_11_138
*848 FILLER_11_15
*849 FILLER_11_151
*850 FILLER_11_159
*851 FILLER_11_167
*852 FILLER_11_169
*853 FILLER_11_197
*854 FILLER_11_217
*855 FILLER_11_223
*856 FILLER_11_225
*857 FILLER_11_243
*858 FILLER_11_250
*859 FILLER_11_262
*860 FILLER_11_274
*861 FILLER_11_281
*862 FILLER_11_293
*863 FILLER_11_3
*864 FILLER_11_32
*865 FILLER_11_36
*866 FILLER_11_40
*867 FILLER_11_49
*868 FILLER_11_55
*869 FILLER_11_57
*870 FILLER_11_63
*871 FILLER_11_72
*872 FILLER_11_81
*873 FILLER_11_85
*874 FILLER_11_9
*875 FILLER_12_105
*876 FILLER_12_125
*877 FILLER_12_134
*878 FILLER_12_141
*879 FILLER_12_152
*880 FILLER_12_156
*881 FILLER_12_160
*882 FILLER_12_166
*883 FILLER_12_183
*884 FILLER_12_194
*885 FILLER_12_197
*886 FILLER_12_21
*887 FILLER_12_217
*888 FILLER_12_226
*889 FILLER_12_232
*890 FILLER_12_238
*891 FILLER_12_250
*892 FILLER_12_253
*893 FILLER_12_265
*894 FILLER_12_27
*895 FILLER_12_277
*896 FILLER_12_289
*897 FILLER_12_29
*898 FILLER_12_297
*899 FILLER_12_3
*900 FILLER_12_36
*901 FILLER_12_42
*902 FILLER_12_46
*903 FILLER_12_55
*904 FILLER_12_79
*905 FILLER_12_83
*906 FILLER_12_85
*907 FILLER_13_104
*908 FILLER_13_11
*909 FILLER_13_113
*910 FILLER_13_119
*911 FILLER_13_136
*912 FILLER_13_156
*913 FILLER_13_16
*914 FILLER_13_165
*915 FILLER_13_169
*916 FILLER_13_176
*917 FILLER_13_185
*918 FILLER_13_192
*919 FILLER_13_199
*920 FILLER_13_205
*921 FILLER_13_222
*922 FILLER_13_225
*923 FILLER_13_23
*924 FILLER_13_243
*925 FILLER_13_255
*926 FILLER_13_267
*927 FILLER_13_279
*928 FILLER_13_281
*929 FILLER_13_293
*930 FILLER_13_3
*931 FILLER_13_32
*932 FILLER_13_54
*933 FILLER_13_57
*934 FILLER_13_63
*935 FILLER_13_69
*936 FILLER_13_73
*937 FILLER_13_90
*938 FILLER_13_98
*939 FILLER_14_103
*940 FILLER_14_111
*941 FILLER_14_133
*942 FILLER_14_139
*943 FILLER_14_141
*944 FILLER_14_15
*945 FILLER_14_152
*946 FILLER_14_172
*947 FILLER_14_179
*948 FILLER_14_187
*949 FILLER_14_193
*950 FILLER_14_197
*951 FILLER_14_202
*952 FILLER_14_222
*953 FILLER_14_23
*954 FILLER_14_231
*955 FILLER_14_240
*956 FILLER_14_247
*957 FILLER_14_251
*958 FILLER_14_253
*959 FILLER_14_265
*960 FILLER_14_27
*961 FILLER_14_277
*962 FILLER_14_289
*963 FILLER_14_29
*964 FILLER_14_297
*965 FILLER_14_3
*966 FILLER_14_51
*967 FILLER_14_71
*968 FILLER_14_82
*969 FILLER_14_85
*970 FILLER_15_105
*971 FILLER_15_111
*972 FILLER_15_113
*973 FILLER_15_126
*974 FILLER_15_146
*975 FILLER_15_156
*976 FILLER_15_160
*977 FILLER_15_164
*978 FILLER_15_169
*979 FILLER_15_176
*980 FILLER_15_182
*981 FILLER_15_199
*982 FILLER_15_21
*983 FILLER_15_219
*984 FILLER_15_223
*985 FILLER_15_225
*986 FILLER_15_244
*987 FILLER_15_256
*988 FILLER_15_268
*989 FILLER_15_281
*990 FILLER_15_29
*991 FILLER_15_293
*992 FILLER_15_3
*993 FILLER_15_47
*994 FILLER_15_54
*995 FILLER_15_57
*996 FILLER_15_63
*997 FILLER_15_70
*998 FILLER_15_79
*999 FILLER_15_87
*1000 FILLER_16_105
*1001 FILLER_16_129
*1002 FILLER_16_138
*1003 FILLER_16_141
*1004 FILLER_16_159
*1005 FILLER_16_165
*1006 FILLER_16_182
*1007 FILLER_16_191
*1008 FILLER_16_195
*1009 FILLER_16_197
*1010 FILLER_16_202
*1011 FILLER_16_210
*1012 FILLER_16_216
*1013 FILLER_16_237
*1014 FILLER_16_246
*1015 FILLER_16_253
*1016 FILLER_16_258
*1017 FILLER_16_26
*1018 FILLER_16_270
*1019 FILLER_16_282
*1020 FILLER_16_29
*1021 FILLER_16_294
*1022 FILLER_16_298
*1023 FILLER_16_3
*1024 FILLER_16_33
*1025 FILLER_16_40
*1026 FILLER_16_49
*1027 FILLER_16_55
*1028 FILLER_16_61
*1029 FILLER_16_72
*1030 FILLER_16_80
*1031 FILLER_16_85
*1032 FILLER_16_9
*1033 FILLER_17_106
*1034 FILLER_17_11
*1035 FILLER_17_110
*1036 FILLER_17_113
*1037 FILLER_17_119
*1038 FILLER_17_125
*1039 FILLER_17_149
*1040 FILLER_17_162
*1041 FILLER_17_169
*1042 FILLER_17_179
*1043 FILLER_17_18
*1044 FILLER_17_186
*1045 FILLER_17_193
*1046 FILLER_17_200
*1047 FILLER_17_207
*1048 FILLER_17_213
*1049 FILLER_17_219
*1050 FILLER_17_223
*1051 FILLER_17_225
*1052 FILLER_17_243
*1053 FILLER_17_25
*1054 FILLER_17_255
*1055 FILLER_17_267
*1056 FILLER_17_279
*1057 FILLER_17_281
*1058 FILLER_17_293
*1059 FILLER_17_3
*1060 FILLER_17_34
*1061 FILLER_17_54
*1062 FILLER_17_57
*1063 FILLER_17_62
*1064 FILLER_17_82
*1065 FILLER_17_89
*1066 FILLER_17_98
*1067 FILLER_18_103
*1068 FILLER_18_112
*1069 FILLER_18_118
*1070 FILLER_18_135
*1071 FILLER_18_139
*1072 FILLER_18_141
*1073 FILLER_18_146
*1074 FILLER_18_16
*1075 FILLER_18_166
*1076 FILLER_18_174
*1077 FILLER_18_192
*1078 FILLER_18_197
*1079 FILLER_18_201
*1080 FILLER_18_218
*1081 FILLER_18_229
*1082 FILLER_18_236
*1083 FILLER_18_248
*1084 FILLER_18_253
*1085 FILLER_18_26
*1086 FILLER_18_265
*1087 FILLER_18_277
*1088 FILLER_18_289
*1089 FILLER_18_29
*1090 FILLER_18_297
*1091 FILLER_18_3
*1092 FILLER_18_36
*1093 FILLER_18_40
*1094 FILLER_18_44
*1095 FILLER_18_64
*1096 FILLER_18_68
*1097 FILLER_18_72
*1098 FILLER_18_81
*1099 FILLER_18_85
*1100 FILLER_18_9
*1101 FILLER_19_110
*1102 FILLER_19_113
*1103 FILLER_19_120
*1104 FILLER_19_129
*1105 FILLER_19_133
*1106 FILLER_19_150
*1107 FILLER_19_159
*1108 FILLER_19_166
*1109 FILLER_19_169
*1110 FILLER_19_187
*1111 FILLER_19_207
*1112 FILLER_19_213
*1113 FILLER_19_219
*1114 FILLER_19_22
*1115 FILLER_19_223
*1116 FILLER_19_225
*1117 FILLER_19_230
*1118 FILLER_19_237
*1119 FILLER_19_244
*1120 FILLER_19_256
*1121 FILLER_19_268
*1122 FILLER_19_281
*1123 FILLER_19_293
*1124 FILLER_19_3
*1125 FILLER_19_34
*1126 FILLER_19_38
*1127 FILLER_19_44
*1128 FILLER_19_50
*1129 FILLER_19_54
*1130 FILLER_19_57
*1131 FILLER_19_64
*1132 FILLER_19_75
*1133 FILLER_19_82
*1134 FILLER_19_86
*1135 FILLER_19_90
*1136 FILLER_1_110
*1137 FILLER_1_113
*1138 FILLER_1_133
*1139 FILLER_1_145
*1140 FILLER_1_15
*1141 FILLER_1_153
*1142 FILLER_1_160
*1143 FILLER_1_169
*1144 FILLER_1_197
*1145 FILLER_1_217
*1146 FILLER_1_223
*1147 FILLER_1_225
*1148 FILLER_1_237
*1149 FILLER_1_249
*1150 FILLER_1_261
*1151 FILLER_1_27
*1152 FILLER_1_273
*1153 FILLER_1_279
*1154 FILLER_1_281
*1155 FILLER_1_293
*1156 FILLER_1_3
*1157 FILLER_1_39
*1158 FILLER_1_51
*1159 FILLER_1_55
*1160 FILLER_1_57
*1161 FILLER_1_65
*1162 FILLER_1_72
*1163 FILLER_1_84
*1164 FILLER_1_92
*1165 FILLER_20_102
*1166 FILLER_20_111
*1167 FILLER_20_131
*1168 FILLER_20_138
*1169 FILLER_20_141
*1170 FILLER_20_159
*1171 FILLER_20_17
*1172 FILLER_20_183
*1173 FILLER_20_192
*1174 FILLER_20_197
*1175 FILLER_20_204
*1176 FILLER_20_208
*1177 FILLER_20_212
*1178 FILLER_20_232
*1179 FILLER_20_236
*1180 FILLER_20_242
*1181 FILLER_20_250
*1182 FILLER_20_253
*1183 FILLER_20_26
*1184 FILLER_20_265
*1185 FILLER_20_277
*1186 FILLER_20_289
*1187 FILLER_20_29
*1188 FILLER_20_297
*1189 FILLER_20_3
*1190 FILLER_20_44
*1191 FILLER_20_53
*1192 FILLER_20_60
*1193 FILLER_20_8
*1194 FILLER_20_82
*1195 FILLER_20_85
*1196 FILLER_20_92
*1197 FILLER_20_98
*1198 FILLER_21_101
*1199 FILLER_21_110
*1200 FILLER_21_113
*1201 FILLER_21_117
*1202 FILLER_21_123
*1203 FILLER_21_129
*1204 FILLER_21_133
*1205 FILLER_21_140
*1206 FILLER_21_149
*1207 FILLER_21_158
*1208 FILLER_21_162
*1209 FILLER_21_166
*1210 FILLER_21_169
*1211 FILLER_21_176
*1212 FILLER_21_182
*1213 FILLER_21_199
*1214 FILLER_21_208
*1215 FILLER_21_21
*1216 FILLER_21_217
*1217 FILLER_21_223
*1218 FILLER_21_225
*1219 FILLER_21_229
*1220 FILLER_21_246
*1221 FILLER_21_258
*1222 FILLER_21_270
*1223 FILLER_21_278
*1224 FILLER_21_281
*1225 FILLER_21_293
*1226 FILLER_21_3
*1227 FILLER_21_31
*1228 FILLER_21_37
*1229 FILLER_21_54
*1230 FILLER_21_57
*1231 FILLER_21_63
*1232 FILLER_21_68
*1233 FILLER_21_92
*1234 FILLER_22_118
*1235 FILLER_22_138
*1236 FILLER_22_14
*1237 FILLER_22_141
*1238 FILLER_22_148
*1239 FILLER_22_155
*1240 FILLER_22_159
*1241 FILLER_22_176
*1242 FILLER_22_182
*1243 FILLER_22_186
*1244 FILLER_22_194
*1245 FILLER_22_197
*1246 FILLER_22_20
*1247 FILLER_22_216
*1248 FILLER_22_236
*1249 FILLER_22_245
*1250 FILLER_22_251
*1251 FILLER_22_253
*1252 FILLER_22_26
*1253 FILLER_22_265
*1254 FILLER_22_277
*1255 FILLER_22_289
*1256 FILLER_22_29
*1257 FILLER_22_297
*1258 FILLER_22_3
*1259 FILLER_22_40
*1260 FILLER_22_47
*1261 FILLER_22_54
*1262 FILLER_22_74
*1263 FILLER_22_81
*1264 FILLER_22_85
*1265 FILLER_22_9
*1266 FILLER_22_98
*1267 FILLER_23_110
*1268 FILLER_23_113
*1269 FILLER_23_120
*1270 FILLER_23_124
*1271 FILLER_23_145
*1272 FILLER_23_165
*1273 FILLER_23_169
*1274 FILLER_23_178
*1275 FILLER_23_182
*1276 FILLER_23_19
*1277 FILLER_23_199
*1278 FILLER_23_208
*1279 FILLER_23_216
*1280 FILLER_23_225
*1281 FILLER_23_232
*1282 FILLER_23_239
*1283 FILLER_23_246
*1284 FILLER_23_258
*1285 FILLER_23_270
*1286 FILLER_23_278
*1287 FILLER_23_281
*1288 FILLER_23_29
*1289 FILLER_23_293
*1290 FILLER_23_3
*1291 FILLER_23_36
*1292 FILLER_23_45
*1293 FILLER_23_54
*1294 FILLER_23_57
*1295 FILLER_23_66
*1296 FILLER_23_8
*1297 FILLER_23_90
*1298 FILLER_24_110
*1299 FILLER_24_114
*1300 FILLER_24_118
*1301 FILLER_24_138
*1302 FILLER_24_141
*1303 FILLER_24_149
*1304 FILLER_24_153
*1305 FILLER_24_159
*1306 FILLER_24_181
*1307 FILLER_24_19
*1308 FILLER_24_190
*1309 FILLER_24_197
*1310 FILLER_24_202
*1311 FILLER_24_211
*1312 FILLER_24_220
*1313 FILLER_24_226
*1314 FILLER_24_243
*1315 FILLER_24_251
*1316 FILLER_24_253
*1317 FILLER_24_26
*1318 FILLER_24_265
*1319 FILLER_24_277
*1320 FILLER_24_289
*1321 FILLER_24_29
*1322 FILLER_24_297
*1323 FILLER_24_3
*1324 FILLER_24_35
*1325 FILLER_24_44
*1326 FILLER_24_65
*1327 FILLER_24_72
*1328 FILLER_24_81
*1329 FILLER_24_85
*1330 FILLER_24_9
*1331 FILLER_24_90
*1332 FILLER_25_107
*1333 FILLER_25_111
*1334 FILLER_25_113
*1335 FILLER_25_12
*1336 FILLER_25_131
*1337 FILLER_25_153
*1338 FILLER_25_160
*1339 FILLER_25_169
*1340 FILLER_25_174
*1341 FILLER_25_181
*1342 FILLER_25_189
*1343 FILLER_25_194
*1344 FILLER_25_198
*1345 FILLER_25_202
*1346 FILLER_25_222
*1347 FILLER_25_225
*1348 FILLER_25_243
*1349 FILLER_25_25
*1350 FILLER_25_252
*1351 FILLER_25_264
*1352 FILLER_25_276
*1353 FILLER_25_281
*1354 FILLER_25_293
*1355 FILLER_25_3
*1356 FILLER_25_34
*1357 FILLER_25_42
*1358 FILLER_25_50
*1359 FILLER_25_57
*1360 FILLER_25_81
*1361 FILLER_25_89
*1362 FILLER_26_100
*1363 FILLER_26_121
*1364 FILLER_26_127
*1365 FILLER_26_133
*1366 FILLER_26_139
*1367 FILLER_26_141
*1368 FILLER_26_148
*1369 FILLER_26_168
*1370 FILLER_26_176
*1371 FILLER_26_193
*1372 FILLER_26_197
*1373 FILLER_26_215
*1374 FILLER_26_22
*1375 FILLER_26_224
*1376 FILLER_26_231
*1377 FILLER_26_237
*1378 FILLER_26_243
*1379 FILLER_26_250
*1380 FILLER_26_253
*1381 FILLER_26_265
*1382 FILLER_26_277
*1383 FILLER_26_289
*1384 FILLER_26_29
*1385 FILLER_26_297
*1386 FILLER_26_3
*1387 FILLER_26_35
*1388 FILLER_26_45
*1389 FILLER_26_49
*1390 FILLER_26_66
*1391 FILLER_26_74
*1392 FILLER_26_81
*1393 FILLER_26_85
*1394 FILLER_26_92
*1395 FILLER_27_100
*1396 FILLER_27_107
*1397 FILLER_27_11
*1398 FILLER_27_111
*1399 FILLER_27_113
*1400 FILLER_27_121
*1401 FILLER_27_125
*1402 FILLER_27_129
*1403 FILLER_27_149
*1404 FILLER_27_157
*1405 FILLER_27_166
*1406 FILLER_27_169
*1407 FILLER_27_187
*1408 FILLER_27_19
*1409 FILLER_27_193
*1410 FILLER_27_199
*1411 FILLER_27_219
*1412 FILLER_27_223
*1413 FILLER_27_225
*1414 FILLER_27_23
*1415 FILLER_27_247
*1416 FILLER_27_259
*1417 FILLER_27_271
*1418 FILLER_27_279
*1419 FILLER_27_281
*1420 FILLER_27_29
*1421 FILLER_27_293
*1422 FILLER_27_3
*1423 FILLER_27_33
*1424 FILLER_27_39
*1425 FILLER_27_45
*1426 FILLER_27_52
*1427 FILLER_27_57
*1428 FILLER_27_66
*1429 FILLER_27_74
*1430 FILLER_27_92
*1431 FILLER_28_103
*1432 FILLER_28_111
*1433 FILLER_28_118
*1434 FILLER_28_125
*1435 FILLER_28_133
*1436 FILLER_28_138
*1437 FILLER_28_141
*1438 FILLER_28_148
*1439 FILLER_28_155
*1440 FILLER_28_159
*1441 FILLER_28_16
*1442 FILLER_28_163
*1443 FILLER_28_171
*1444 FILLER_28_178
*1445 FILLER_28_184
*1446 FILLER_28_188
*1447 FILLER_28_197
*1448 FILLER_28_219
*1449 FILLER_28_239
*1450 FILLER_28_24
*1451 FILLER_28_246
*1452 FILLER_28_253
*1453 FILLER_28_265
*1454 FILLER_28_277
*1455 FILLER_28_289
*1456 FILLER_28_29
*1457 FILLER_28_297
*1458 FILLER_28_3
*1459 FILLER_28_37
*1460 FILLER_28_51
*1461 FILLER_28_59
*1462 FILLER_28_64
*1463 FILLER_28_72
*1464 FILLER_28_79
*1465 FILLER_28_83
*1466 FILLER_28_85
*1467 FILLER_28_9
*1468 FILLER_29_110
*1469 FILLER_29_113
*1470 FILLER_29_131
*1471 FILLER_29_137
*1472 FILLER_29_141
*1473 FILLER_29_161
*1474 FILLER_29_167
*1475 FILLER_29_169
*1476 FILLER_29_176
*1477 FILLER_29_18
*1478 FILLER_29_184
*1479 FILLER_29_202
*1480 FILLER_29_211
*1481 FILLER_29_222
*1482 FILLER_29_225
*1483 FILLER_29_231
*1484 FILLER_29_237
*1485 FILLER_29_249
*1486 FILLER_29_261
*1487 FILLER_29_273
*1488 FILLER_29_279