*SPEF "ieee 1481-1999"
*DESIGN "asic_multiplier_wrapper"
*DATE "11:11:11 Fri 11 11, 1111"
*VENDOR "OpenRCX"
*PROGRAM "Parallel Extraction"
*VERSION "1.0"
*DESIGN_FLOW "NAME_SCOPE LOCAL" "PIN_CAP NONE"
*DIVIDER /
*DELIMITER :
*BUS_DELIMITER []
*T_UNIT 1 NS
*C_UNIT 1 PF
*R_UNIT 1 OHM
*L_UNIT 1 HENRY

*NAME_MAP
*1 io_in[0]
*2 io_in[1]
*3 io_in[2]
*4 io_in[3]
*5 io_in[4]
*6 io_in[5]
*7 io_in[6]
*8 io_in[7]
*9 io_out[0]
*10 io_out[1]
*11 io_out[2]
*12 io_out[3]
*13 io_out[4]
*14 io_out[5]
*15 io_out[6]
*16 io_out[7]
*19 _000_
*20 _001_
*21 _002_
*22 _003_
*23 _004_
*24 _005_
*25 _006_
*26 _007_
*27 _008_
*28 _009_
*29 _010_
*30 _011_
*31 _012_
*32 _013_
*33 _014_
*34 _015_
*35 _016_
*36 _017_
*37 _018_
*38 _019_
*39 _020_
*40 _021_
*41 _022_
*42 _023_
*43 _024_
*44 _025_
*45 _026_
*46 _027_
*47 _028_
*48 _029_
*49 _030_
*50 _031_
*51 _032_
*52 _033_
*53 _034_
*54 _035_
*55 _036_
*56 _037_
*57 _038_
*58 _039_
*59 _040_
*60 _041_
*61 _042_
*62 _043_
*63 _044_
*64 _045_
*65 _046_
*66 _047_
*67 _048_
*68 _049_
*69 _050_
*70 _051_
*71 _052_
*72 _053_
*73 _054_
*74 _055_
*75 _056_
*76 _057_
*77 _058_
*78 _059_
*79 _060_
*80 _061_
*81 _062_
*82 _063_
*83 _064_
*84 _065_
*85 _066_
*86 _067_
*87 _068_
*88 _069_
*89 _070_
*90 _071_
*91 _072_
*92 _073_
*93 _074_
*94 _075_
*95 _076_
*96 _077_
*97 _078_
*98 _079_
*99 _080_
*100 _081_
*101 _082_
*102 _083_
*103 _084_
*104 _085_
*105 _086_
*106 _087_
*107 _088_
*108 _089_
*109 _090_
*110 _091_
*111 _092_
*112 _093_
*113 _094_
*114 _095_
*115 _096_
*116 _097_
*117 _098_
*118 _099_
*119 _100_
*120 _101_
*121 _102_
*122 _103_
*123 _104_
*124 _105_
*125 _106_
*126 _107_
*127 _108_
*128 _109_
*129 _110_
*130 _111_
*131 _112_
*132 asic_multiplier_top\.multiplier_8bits\.i_a\[0\]
*133 asic_multiplier_top\.multiplier_8bits\.i_a\[1\]
*134 asic_multiplier_top\.multiplier_8bits\.i_a\[2\]
*135 asic_multiplier_top\.multiplier_8bits\.i_b\[0\]
*136 asic_multiplier_top\.multiplier_8bits\.i_b\[1\]
*137 asic_multiplier_top\.multiplier_8bits\.i_b\[2\]
*138 asic_multiplier_top\.o_lsb_digit
*139 asic_multiplier_top\.r_counter\[0\]
*140 asic_multiplier_top\.r_counter\[10\]
*141 asic_multiplier_top\.r_counter\[1\]
*142 asic_multiplier_top\.r_counter\[2\]
*143 asic_multiplier_top\.r_counter\[3\]
*144 asic_multiplier_top\.r_counter\[4\]
*145 asic_multiplier_top\.r_counter\[5\]
*146 asic_multiplier_top\.r_counter\[6\]
*147 asic_multiplier_top\.r_counter\[7\]
*148 asic_multiplier_top\.r_counter\[8\]
*149 asic_multiplier_top\.r_counter\[9\]
*150 asic_multiplier_top\.r_digit\[0\]
*151 asic_multiplier_top\.r_digit\[1\]
*152 asic_multiplier_top\.r_digit\[2\]
*153 asic_multiplier_top\.r_digit\[3\]
*154 asic_multiplier_top\.r_fact_a_in\[0\]
*155 asic_multiplier_top\.r_fact_a_in\[1\]
*156 asic_multiplier_top\.r_fact_a_in\[2\]
*157 asic_multiplier_top\.r_fact_b_in\[0\]
*158 asic_multiplier_top\.r_fact_b_in\[1\]
*159 asic_multiplier_top\.r_fact_b_in\[2\]
*160 asic_multiplier_top\.r_lsb_digit
*161 clknet_0_io_in[0]
*162 clknet_2_0__leaf_io_in[0]
*163 clknet_2_1__leaf_io_in[0]
*164 clknet_2_2__leaf_io_in[0]
*165 clknet_2_3__leaf_io_in[0]
*166 net1
*167 net2
*168 net3
*169 net4
*170 net5
*171 net6
*172 net7
*173 FILLER_0_103
*174 FILLER_0_111
*175 FILLER_0_113
*176 FILLER_0_125
*177 FILLER_0_137
*178 FILLER_0_141
*179 FILLER_0_153
*180 FILLER_0_165
*181 FILLER_0_169
*182 FILLER_0_181
*183 FILLER_0_193
*184 FILLER_0_197
*185 FILLER_0_209
*186 FILLER_0_221
*187 FILLER_0_225
*188 FILLER_0_237
*189 FILLER_0_249
*190 FILLER_0_253
*191 FILLER_0_26
*192 FILLER_0_265
*193 FILLER_0_277
*194 FILLER_0_281
*195 FILLER_0_29
*196 FILLER_0_293
*197 FILLER_0_3
*198 FILLER_0_53
*199 FILLER_0_57
*200 FILLER_0_75
*201 FILLER_0_82
*202 FILLER_0_85
*203 FILLER_0_9
*204 FILLER_0_94
*205 FILLER_10_105
*206 FILLER_10_117
*207 FILLER_10_129
*208 FILLER_10_137
*209 FILLER_10_141
*210 FILLER_10_153
*211 FILLER_10_165
*212 FILLER_10_177
*213 FILLER_10_189
*214 FILLER_10_195
*215 FILLER_10_197
*216 FILLER_10_209
*217 FILLER_10_221
*218 FILLER_10_23
*219 FILLER_10_233
*220 FILLER_10_245
*221 FILLER_10_251
*222 FILLER_10_253
*223 FILLER_10_265
*224 FILLER_10_27
*225 FILLER_10_277
*226 FILLER_10_289
*227 FILLER_10_29
*228 FILLER_10_297
*229 FILLER_10_3
*230 FILLER_10_53
*231 FILLER_10_65
*232 FILLER_10_77
*233 FILLER_10_82
*234 FILLER_10_85
*235 FILLER_10_89
*236 FILLER_10_93
*237 FILLER_11_110
*238 FILLER_11_113
*239 FILLER_11_125
*240 FILLER_11_137
*241 FILLER_11_149
*242 FILLER_11_161
*243 FILLER_11_167
*244 FILLER_11_169
*245 FILLER_11_181
*246 FILLER_11_193
*247 FILLER_11_205
*248 FILLER_11_217
*249 FILLER_11_223
*250 FILLER_11_225
*251 FILLER_11_237
*252 FILLER_11_249
*253 FILLER_11_261
*254 FILLER_11_273
*255 FILLER_11_279
*256 FILLER_11_281
*257 FILLER_11_29
*258 FILLER_11_293
*259 FILLER_11_3
*260 FILLER_11_35
*261 FILLER_11_53
*262 FILLER_11_57
*263 FILLER_11_69
*264 FILLER_11_77
*265 FILLER_11_8
*266 FILLER_11_86
*267 FILLER_11_98
*268 FILLER_12_109
*269 FILLER_12_121
*270 FILLER_12_133
*271 FILLER_12_139
*272 FILLER_12_141
*273 FILLER_12_153
*274 FILLER_12_165
*275 FILLER_12_177
*276 FILLER_12_189
*277 FILLER_12_195
*278 FILLER_12_197
*279 FILLER_12_209
*280 FILLER_12_22
*281 FILLER_12_221
*282 FILLER_12_233
*283 FILLER_12_245
*284 FILLER_12_251
*285 FILLER_12_253
*286 FILLER_12_265
*287 FILLER_12_277
*288 FILLER_12_289
*289 FILLER_12_29
*290 FILLER_12_297
*291 FILLER_12_3
*292 FILLER_12_35
*293 FILLER_12_55
*294 FILLER_12_67
*295 FILLER_12_79
*296 FILLER_12_83
*297 FILLER_12_85
*298 FILLER_12_97
*299 FILLER_13_105
*300 FILLER_13_111
*301 FILLER_13_113
*302 FILLER_13_119
*303 FILLER_13_128
*304 FILLER_13_140
*305 FILLER_13_152
*306 FILLER_13_164
*307 FILLER_13_169
*308 FILLER_13_181
*309 FILLER_13_193
*310 FILLER_13_205
*311 FILLER_13_21
*312 FILLER_13_217
*313 FILLER_13_223
*314 FILLER_13_225
*315 FILLER_13_237
*316 FILLER_13_249
*317 FILLER_13_261
*318 FILLER_13_273
*319 FILLER_13_279
*320 FILLER_13_281
*321 FILLER_13_293
*322 FILLER_13_3
*323 FILLER_13_33
*324 FILLER_13_53
*325 FILLER_13_57
*326 FILLER_13_69
*327 FILLER_13_81
*328 FILLER_13_93
*329 FILLER_14_109
*330 FILLER_14_121
*331 FILLER_14_133
*332 FILLER_14_139
*333 FILLER_14_141
*334 FILLER_14_15
*335 FILLER_14_153
*336 FILLER_14_165
*337 FILLER_14_177
*338 FILLER_14_189
*339 FILLER_14_195
*340 FILLER_14_197
*341 FILLER_14_209
*342 FILLER_14_221
*343 FILLER_14_233
*344 FILLER_14_245
*345 FILLER_14_251
*346 FILLER_14_253
*347 FILLER_14_265
*348 FILLER_14_27
*349 FILLER_14_277
*350 FILLER_14_289
*351 FILLER_14_29
*352 FILLER_14_297
*353 FILLER_14_3
*354 FILLER_14_34
*355 FILLER_14_46
*356 FILLER_14_58
*357 FILLER_14_70
*358 FILLER_14_82
*359 FILLER_14_85
*360 FILLER_14_97
*361 FILLER_15_111
*362 FILLER_15_113
*363 FILLER_15_125
*364 FILLER_15_137
*365 FILLER_15_14
*366 FILLER_15_149
*367 FILLER_15_161
*368 FILLER_15_167
*369 FILLER_15_169
*370 FILLER_15_181
*371 FILLER_15_193
*372 FILLER_15_205
*373 FILLER_15_21
*374 FILLER_15_217
*375 FILLER_15_223
*376 FILLER_15_225
*377 FILLER_15_237
*378 FILLER_15_249
*379 FILLER_15_261
*380 FILLER_15_273
*381 FILLER_15_279
*382 FILLER_15_281
*383 FILLER_15_29
*384 FILLER_15_293
*385 FILLER_15_3
*386 FILLER_15_41
*387 FILLER_15_53
*388 FILLER_15_57
*389 FILLER_15_63
*390 FILLER_15_75
*391 FILLER_15_87
*392 FILLER_15_99
*393 FILLER_16_109
*394 FILLER_16_121
*395 FILLER_16_133
*396 FILLER_16_139
*397 FILLER_16_14
*398 FILLER_16_141
*399 FILLER_16_153
*400 FILLER_16_165
*401 FILLER_16_177
*402 FILLER_16_189
*403 FILLER_16_195
*404 FILLER_16_197
*405 FILLER_16_209
*406 FILLER_16_21
*407 FILLER_16_221
*408 FILLER_16_233
*409 FILLER_16_245
*410 FILLER_16_251
*411 FILLER_16_253
*412 FILLER_16_265
*413 FILLER_16_27
*414 FILLER_16_277
*415 FILLER_16_289
*416 FILLER_16_29
*417 FILLER_16_297
*418 FILLER_16_3
*419 FILLER_16_41
*420 FILLER_16_50
*421 FILLER_16_62
*422 FILLER_16_74
*423 FILLER_16_82
*424 FILLER_16_85
*425 FILLER_16_97
*426 FILLER_17_105
*427 FILLER_17_111
*428 FILLER_17_113
*429 FILLER_17_125
*430 FILLER_17_13
*431 FILLER_17_137
*432 FILLER_17_149
*433 FILLER_17_161
*434 FILLER_17_167
*435 FILLER_17_169
*436 FILLER_17_181
*437 FILLER_17_193
*438 FILLER_17_205
*439 FILLER_17_217
*440 FILLER_17_223
*441 FILLER_17_225
*442 FILLER_17_237
*443 FILLER_17_249
*444 FILLER_17_25
*445 FILLER_17_261
*446 FILLER_17_273
*447 FILLER_17_279
*448 FILLER_17_281
*449 FILLER_17_293
*450 FILLER_17_3
*451 FILLER_17_37
*452 FILLER_17_49
*453 FILLER_17_55
*454 FILLER_17_57
*455 FILLER_17_69
*456 FILLER_17_81
*457 FILLER_17_93
*458 FILLER_18_109
*459 FILLER_18_121
*460 FILLER_18_133
*461 FILLER_18_139
*462 FILLER_18_141
*463 FILLER_18_153
*464 FILLER_18_165
*465 FILLER_18_17
*466 FILLER_18_177
*467 FILLER_18_189
*468 FILLER_18_195
*469 FILLER_18_197
*470 FILLER_18_209
*471 FILLER_18_221
*472 FILLER_18_233
*473 FILLER_18_245
*474 FILLER_18_25
*475 FILLER_18_251
*476 FILLER_18_253
*477 FILLER_18_265
*478 FILLER_18_277
*479 FILLER_18_289
*480 FILLER_18_29
*481 FILLER_18_297
*482 FILLER_18_3
*483 FILLER_18_41
*484 FILLER_18_47
*485 FILLER_18_56
*486 FILLER_18_68
*487 FILLER_18_8
*488 FILLER_18_80
*489 FILLER_18_85
*490 FILLER_18_97
*491 FILLER_19_105
*492 FILLER_19_111
*493 FILLER_19_113
*494 FILLER_19_125
*495 FILLER_19_137
*496 FILLER_19_149
*497 FILLER_19_161
*498 FILLER_19_167
*499 FILLER_19_169
*500 FILLER_19_17
*501 FILLER_19_181
*502 FILLER_19_193
*503 FILLER_19_205
*504 FILLER_19_217
*505 FILLER_19_223
*506 FILLER_19_225
*507 FILLER_19_237
*508 FILLER_19_249
*509 FILLER_19_261
*510 FILLER_19_273
*511 FILLER_19_279
*512 FILLER_19_281
*513 FILLER_19_29
*514 FILLER_19_293
*515 FILLER_19_3
*516 FILLER_19_41
*517 FILLER_19_53
*518 FILLER_19_57
*519 FILLER_19_69
*520 FILLER_19_7
*521 FILLER_19_81
*522 FILLER_19_93
*523 FILLER_1_107
*524 FILLER_1_111
*525 FILLER_1_113
*526 FILLER_1_117
*527 FILLER_1_122
*528 FILLER_1_129
*529 FILLER_1_141
*530 FILLER_1_153
*531 FILLER_1_158
*532 FILLER_1_166
*533 FILLER_1_169
*534 FILLER_1_17
*535 FILLER_1_181
*536 FILLER_1_193
*537 FILLER_1_205
*538 FILLER_1_217
*539 FILLER_1_223
*540 FILLER_1_225
*541 FILLER_1_237
*542 FILLER_1_249
*543 FILLER_1_261
*544 FILLER_1_273
*545 FILLER_1_279
*546 FILLER_1_281
*547 FILLER_1_293
*548 FILLER_1_3
*549 FILLER_1_35
*550 FILLER_1_47
*551 FILLER_1_54
*552 FILLER_1_57
*553 FILLER_1_75
*554 FILLER_1_9
*555 FILLER_1_95
*556 FILLER_20_105
*557 FILLER_20_112
*558 FILLER_20_124
*559 FILLER_20_136
*560 FILLER_20_141
*561 FILLER_20_153
*562 FILLER_20_165
*563 FILLER_20_177
*564 FILLER_20_189
*565 FILLER_20_195
*566 FILLER_20_197
*567 FILLER_20_20
*568 FILLER_20_209
*569 FILLER_20_221
*570 FILLER_20_233
*571 FILLER_20_245
*572 FILLER_20_251
*573 FILLER_20_253
*574 FILLER_20_265
*575 FILLER_20_277
*576 FILLER_20_289
*577 FILLER_20_29
*578 FILLER_20_297
*579 FILLER_20_3
*580 FILLER_20_41
*581 FILLER_20_45
*582 FILLER_20_49
*583 FILLER_20_61
*584 FILLER_20_73
*585 FILLER_20_8
*586 FILLER_20_81
*587 FILLER_20_85
*588 FILLER_20_97
*589 FILLER_21_106
*590 FILLER_21_113
*591 FILLER_21_125
*592 FILLER_21_137
*593 FILLER_21_149
*594 FILLER_21_16
*595 FILLER_21_161
*596 FILLER_21_167
*597 FILLER_21_169
*598 FILLER_21_181
*599 FILLER_21_193
*600 FILLER_21_205
*601 FILLER_21_217
*602 FILLER_21_223
*603 FILLER_21_225
*604 FILLER_21_237
*605 FILLER_21_249
*606 FILLER_21_261
*607 FILLER_21_273
*608 FILLER_21_279
*609 FILLER_21_28
*610 FILLER_21_281
*611 FILLER_21_293
*612 FILLER_21_3
*613 FILLER_21_40
*614 FILLER_21_52
*615 FILLER_21_57
*616 FILLER_21_69
*617 FILLER_21_81
*618 FILLER_21_87
*619 FILLER_21_94
*620 FILLER_22_109
*621 FILLER_22_121
*622 FILLER_22_133
*623 FILLER_22_139
*624 FILLER_22_141
*625 FILLER_22_15
*626 FILLER_22_153
*627 FILLER_22_165
*628 FILLER_22_177
*629 FILLER_22_189
*630 FILLER_22_195
*631 FILLER_22_197
*632 FILLER_22_209
*633 FILLER_22_221
*634 FILLER_22_233
*635 FILLER_22_245
*636 FILLER_22_251
*637 FILLER_22_253
*638 FILLER_22_26
*639 FILLER_22_265
*640 FILLER_22_277
*641 FILLER_22_289
*642 FILLER_22_29
*643 FILLER_22_297
*644 FILLER_22_3
*645 FILLER_22_40
*646 FILLER_22_50
*647 FILLER_22_62
*648 FILLER_22_74
*649 FILLER_22_82
*650 FILLER_22_85
*651 FILLER_22_97
*652 FILLER_23_101
*653 FILLER_23_110
*654 FILLER_23_113
*655 FILLER_23_125
*656 FILLER_23_137
*657 FILLER_23_149
*658 FILLER_23_161
*659 FILLER_23_167
*660 FILLER_23_169
*661 FILLER_23_181
*662 FILLER_23_193
*663 FILLER_23_20
*664 FILLER_23_205
*665 FILLER_23_217
*666 FILLER_23_223
*667 FILLER_23_225
*668 FILLER_23_237
*669 FILLER_23_249
*670 FILLER_23_261
*671 FILLER_23_273
*672 FILLER_23_279
*673 FILLER_23_281
*674 FILLER_23_293
*675 FILLER_23_3
*676 FILLER_23_32
*677 FILLER_23_44
*678 FILLER_23_57
*679 FILLER_23_69
*680 FILLER_23_8
*681 FILLER_23_81
*682 FILLER_23_93
*683 FILLER_24_109
*684 FILLER_24_121
*685 FILLER_24_13
*686 FILLER_24_133
*687 FILLER_24_139
*688 FILLER_24_141
*689 FILLER_24_153
*690 FILLER_24_165
*691 FILLER_24_177
*692 FILLER_24_189
*693 FILLER_24_195
*694 FILLER_24_197
*695 FILLER_24_209
*696 FILLER_24_221
*697 FILLER_24_233
*698 FILLER_24_245
*699 FILLER_24_25
*700 FILLER_24_251
*701 FILLER_24_253
*702 FILLER_24_265
*703 FILLER_24_277
*704 FILLER_24_289
*705 FILLER_24_29
*706 FILLER_24_297
*707 FILLER_24_3
*708 FILLER_24_37
*709 FILLER_24_46
*710 FILLER_24_58
*711 FILLER_24_70
*712 FILLER_24_82
*713 FILLER_24_85
*714 FILLER_24_97
*715 FILLER_25_105
*716 FILLER_25_111
*717 FILLER_25_113
*718 FILLER_25_125
*719 FILLER_25_137
*720 FILLER_25_149
*721 FILLER_25_15
*722 FILLER_25_161
*723 FILLER_25_167
*724 FILLER_25_169
*725 FILLER_25_181
*726 FILLER_25_193
*727 FILLER_25_205
*728 FILLER_25_217
*729 FILLER_25_223
*730 FILLER_25_225
*731 FILLER_25_237
*732 FILLER_25_249
*733 FILLER_25_261
*734 FILLER_25_27
*735 FILLER_25_273
*736 FILLER_25_279
*737 FILLER_25_281
*738 FILLER_25_293
*739 FILLER_25_3
*740 FILLER_25_40
*741 FILLER_25_52
*742 FILLER_25_57
*743 FILLER_25_69
*744 FILLER_25_75
*745 FILLER_25_81
*746 FILLER_25_93
*747 FILLER_26_103
*748 FILLER_26_107
*749 FILLER_26_119
*750 FILLER_26_131
*751 FILLER_26_139
*752 FILLER_26_141
*753 FILLER_26_153
*754 FILLER_26_165
*755 FILLER_26_177
*756 FILLER_26_189
*757 FILLER_26_195
*758 FILLER_26_197
*759 FILLER_26_20
*760 FILLER_26_209
*761 FILLER_26_221
*762 FILLER_26_233
*763 FILLER_26_245
*764 FILLER_26_251
*765 FILLER_26_253
*766 FILLER_26_265
*767 FILLER_26_277
*768 FILLER_26_289
*769 FILLER_26_29
*770 FILLER_26_297
*771 FILLER_26_3
*772 FILLER_26_41
*773 FILLER_26_58
*774 FILLER_26_69
*775 FILLER_26_8
*776 FILLER_26_81
*777 FILLER_26_85
*778 FILLER_26_97
*779 FILLER_27_105
*780 FILLER_27_111
*781 FILLER_27_113
*782 FILLER_27_123
*783 FILLER_27_135
*784 FILLER_27_14
*785 FILLER_27_147
*786 FILLER_27_159
*787 FILLER_27_167
*788 FILLER_27_169
*789 FILLER_27_181
*790 FILLER_27_193
*791 FILLER_27_205
*792 FILLER_27_217
*793 FILLER_27_223
*794 FILLER_27_225
*795 FILLER_27_237
*796 FILLER_27_249
*797 FILLER_27_26
*798 FILLER_27_261
*799 FILLER_27_273
*800 FILLER_27_279
*801 FILLER_27_281
*802 FILLER_27_293
*803 FILLER_27_3
*804 FILLER_27_38
*805 FILLER_27_50
*806 FILLER_27_57
*807 FILLER_27_69
*808 FILLER_27_81
*809 FILLER_27_93
*810 FILLER_28_101
*811 FILLER_28_113
*812 FILLER_28_125
*813 FILLER_28_137
*814 FILLER_28_141
*815 FILLER_28_15
*816 FILLER_28_153
*817 FILLER_28_165
*818 FILLER_28_177
*819 FILLER_28_189
*820 FILLER_28_195
*821 FILLER_28_197
*822 FILLER_28_209
*823 FILLER_28_221
*824 FILLER_28_233
*825 FILLER_28_245
*826 FILLER_28_251
*827 FILLER_28_253
*828 FILLER_28_265
*829 FILLER_28_27
*830 FILLER_28_277
*831 FILLER_28_289
*832 FILLER_28_29
*833 FILLER_28_297
*834 FILLER_28_3
*835 FILLER_28_39
*836 FILLER_28_46
*837 FILLER_28_58
*838 FILLER_28_66
*839 FILLER_28_78
*840 FILLER_28_85
*841 FILLER_28_93
*842 FILLER_29_106
*843 FILLER_29_113
*844 FILLER_29_120
*845 FILLER_29_132
*846 FILLER_29_144
*847 FILLER_29_15
*848 FILLER_29_156
*849 FILLER_29_169
*850 FILLER_29_181
*851 FILLER_29_193
*852 FILLER_29_20
*853 FILLER_29_205
*854 FILLER_29_217
*855 FILLER_29_223
*856 FILLER_29_225
*857 FILLER_29_237
*858 FILLER_29_249
*859 FILLER_29_261
*860 FILLER_29_273
*861 FILLER_29_279
*862 FILLER_29_28
*863 FILLER_29_281
*864 FILLER_29_293
*865 FILLER_29_3
*866 FILLER_29_39
*867 FILLER_29_51
*868 FILLER_29_55
*869 FILLER_29_57
*870 FILLER_29_65
*871 FILLER_29_71
*872 FILLER_29_82
*873 FILLER_29_94
*874 FILLER_2_103
*875 FILLER_2_109
*876 FILLER_2_121
*877 FILLER_2_133
*878 FILLER_2_139
*879 FILLER_2_141
*880 FILLER_2_153
*881 FILLER_2_168
*882 FILLER_2_180
*883 FILLER_2_192
*884 FILLER_2_197
*885 FILLER_2_209
*886 FILLER_2_22
*887 FILLER_2_221
*888 FILLER_2_233
*889 FILLER_2_245
*890 FILLER_2_251
*891 FILLER_2_253
*892 FILLER_2_265
*893 FILLER_2_277
*894 FILLER_2_289
*895 FILLER_2_29
*896 FILLER_2_297
*897 FILLER_2_3
*898 FILLER_2_41
*899 FILLER_2_65
*900 FILLER_2_75
*901 FILLER_2_82
*902 FILLER_2_85
*903 FILLER_2_90
*904 FILLER_2_97
*905 FILLER_30_109
*906 FILLER_30_121
*907 FILLER_30_133
*908 FILLER_30_139
*909 FILLER_30_141
*910 FILLER_30_15
*911 FILLER_30_153
*912 FILLER_30_165
*913 FILLER_30_177
*914 FILLER_30_189
*915 FILLER_30_195
*916 FILLER_30_197
*917 FILLER_30_209
*918 FILLER_30_221
*919 FILLER_30_233
*920 FILLER_30_24
*921 FILLER_30_245
*922 FILLER_30_251
*923 FILLER_30_253
*924 FILLER_30_265
*925 FILLER_30_277
*926 FILLER_30_289
*927 FILLER_30_29
*928 FILLER_30_297
*929 FILLER_30_3
*930 FILLER_30_37
*931 FILLER_30_47
*932 FILLER_30_59
*933 FILLER_30_66
*934 FILLER_30_78
*935 FILLER_30_85
*936 FILLER_30_97
*937 FILLER_31_108
*938 FILLER_31_113
*939 FILLER_31_125
*940 FILLER_31_137
*941 FILLER_31_14
*942 FILLER_31_149
*943 FILLER_31_161
*944 FILLER_31_167
*945 FILLER_31_169
*946 FILLER_31_181
*947 FILLER_31_193
*948 FILLER_31_205
*949 FILLER_31_217
*950 FILLER_31_223
*951 FILLER_31_225
*952 FILLER_31_237
*953 FILLER_31_249
*954 FILLER_31_25
*955 FILLER_31_261
*956 FILLER_31_273
*957 FILLER_31_279
*958 FILLER_31_281
*959 FILLER_31_293
*960 FILLER_31_3
*961 FILLER_31_31
*962 FILLER_31_39
*963 FILLER_31_51
*964 FILLER_31_55
*965 FILLER_31_57
*966 FILLER_31_66
*967 FILLER_31_78
*968 FILLER_31_90
*969 FILLER_31_96
*970 FILLER_32_109
*971 FILLER_32_121
*972 FILLER_32_133
*973 FILLER_32_139
*974 FILLER_32_141
*975 FILLER_32_15
*976 FILLER_32_153
*977 FILLER_32_165
*978 FILLER_32_177
*979 FILLER_32_189
*980 FILLER_32_195
*981 FILLER_32_197
*982 FILLER_32_209
*983 FILLER_32_221
*984 FILLER_32_233
*985 FILLER_32_245
*986 FILLER_32_251
*987 FILLER_32_253
*988 FILLER_32_265
*989 FILLER_32_27
*990 FILLER_32_277
*991 FILLER_32_289
*992 FILLER_32_29
*993 FILLER_32_297
*994 FILLER_32_3
*995 FILLER_32_41
*996 FILLER_32_53
*997 FILLER_32_65
*998 FILLER_32_73
*999 FILLER_32_82
*1000 FILLER_32_85
*1001 FILLER_32_97
*1002 FILLER_33_103
*1003 FILLER_33_111
*1004 FILLER_33_113
*1005 FILLER_33_125
*1006 FILLER_33_137
*1007 FILLER_33_149
*1008 FILLER_33_161
*1009 FILLER_33_167
*1010 FILLER_33_169
*1011 FILLER_33_18
*1012 FILLER_33_181
*1013 FILLER_33_193
*1014 FILLER_33_205
*1015 FILLER_33_217
*1016 FILLER_33_223
*1017 FILLER_33_225
*1018 FILLER_33_237
*1019 FILLER_33_249
*1020 FILLER_33_25
*1021 FILLER_33_261
*1022 FILLER_33_273
*1023 FILLER_33_279
*1024 FILLER_33_281
*1025 FILLER_33_29
*1026 FILLER_33_293
*1027 FILLER_33_3
*1028 FILLER_33_39
*1029 FILLER_33_50
*1030 FILLER_33_57
*1031 FILLER_33_69
*1032 FILLER_33_79
*1033 FILLER_33_91
*1034 FILLER_34_109
*1035 FILLER_34_121
*1036 FILLER_34_133
*1037 FILLER_34_139
*1038 FILLER_34_141
*1039 FILLER_34_153
*1040 FILLER_34_165
*1041 FILLER_34_177
*1042 FILLER_34_189
*1043 FILLER_34_195
*1044 FILLER_34_197
*1045 FILLER_34_209
*1046 FILLER_34_22
*1047 FILLER_34_221
*1048 FILLER_34_233
*1049 FILLER_34_245
*1050 FILLER_34_251
*1051 FILLER_34_253
*1052 FILLER_34_265
*1053 FILLER_34_277
*1054 FILLER_34_289
*1055 FILLER_34_29
*1056 FILLER_34_297
*1057 FILLER_34_3
*1058 FILLER_34_41
*1059 FILLER_34_54
*1060 FILLER_34_66
*1061 FILLER_34_78
*1062 FILLER_34_85
*1063 FILLER_34_97
*1064 FILLER_35_105
*1065 FILLER_35_111
*1066 FILLER_35_113
*1067 FILLER_35_125
*1068 FILLER_35_137
*1069 FILLER_35_149
*1070 FILLER_35_15
*1071 FILLER_35_161
*1072 FILLER_35_167
*1073 FILLER_35_169
*1074 FILLER_35_181
*1075 FILLER_35_193
*1076 FILLER_35_205
*1077 FILLER_35_217
*1078 FILLER_35_22
*1079 FILLER_35_223
*1080 FILLER_35_225
*1081 FILLER_35_237
*1082 FILLER_35_249
*1083 FILLER_35_261
*1084 FILLER_35_273
*1085 FILLER_35_279
*1086 FILLER_35_281
*1087 FILLER_35_293
*1088 FILLER_35_3
*1089 FILLER_35_34
*1090 FILLER_35_46
*1091 FILLER_35_54
*1092 FILLER_35_57
*1093 FILLER_35_69
*1094 FILLER_35_81
*1095 FILLER_35_93
*1096 FILLER_36_109
*1097 FILLER_36_121
*1098 FILLER_36_13
*1099 FILLER_36_133
*1100 FILLER_36_139
*1101 FILLER_36_141
*1102 FILLER_36_153
*1103 FILLER_36_165
*1104 FILLER_36_177
*1105 FILLER_36_189
*1106 FILLER_36_19
*1107 FILLER_36_195
*1108 FILLER_36_197
*1109 FILLER_36_209
*1110 FILLER_36_221
*1111 FILLER_36_233
*1112 FILLER_36_245
*1113 FILLER_36_251
*1114 FILLER_36_253
*1115 FILLER_36_26
*1116 FILLER_36_265
*1117 FILLER_36_277
*1118 FILLER_36_289
*1119 FILLER_36_29
*1120 FILLER_36_297
*1121 FILLER_36_3
*1122 FILLER_36_37
*1123 FILLER_36_49
*1124 FILLER_36_61
*1125 FILLER_36_68
*1126 FILLER_36_80
*1127 FILLER_36_85
*1128 FILLER_36_97
*1129 FILLER_37_10
*1130 FILLER_37_109
*1131 FILLER_37_113
*1132 FILLER_37_125
*1133 FILLER_37_137
*1134 FILLER_37_149
*1135 FILLER_37_16
*1136 FILLER_37_161
*1137 FILLER_37_167
*1138 FILLER_37_169
*1139 FILLER_37_181
*1140 FILLER_37_193
*1141 FILLER_37_205
*1142 FILLER_37_217
*1143 FILLER_37_223
*1144 FILLER_37_225
*1145 FILLER_37_23
*1146 FILLER_37_237
*1147 FILLER_37_249
*1148 FILLER_37_261
*1149 FILLER_37_273
*1150 FILLER_37_279
*1151 FILLER_37_281
*1152 FILLER_37_293
*1153 FILLER_37_3
*1154 FILLER_37_35
*1155 FILLER_37_41
*1156 FILLER_37_45
*1157 FILLER_37_53
*1158 FILLER_37_57
*1159 FILLER_37_65
*1160 FILLER_37_77
*1161 FILLER_37_85
*1162 FILLER_37_97
*1163 FILLER_38_109
*1164 FILLER_38_121
*1165 FILLER_38_133
*1166 FILLER_38_139
*1167 FILLER_38_141
*1168 FILLER_38_153
*1169 FILLER_38_16
*1170 FILLER_38_165
*1171 FILLER_38_177
*1172 FILLER_38_189
*1173 FILLER_38_195
*1174 FILLER_38_197
*1175 FILLER_38_209
*1176 FILLER_38_221
*1177 FILLER_38_233
*1178 FILLER_38_245
*1179 FILLER_38_25
*1180 FILLER_38_251
*1181 FILLER_38_253
*1182 FILLER_38_265
*1183 FILLER_38_277
*1184 FILLER_38_289
*1185 FILLER_38_29
*1186 FILLER_38_297
*1187 FILLER_38_3
*1188 FILLER_38_37
*1189 FILLER_38_41
*1190 FILLER_38_48
*1191 FILLER_38_57
*1192 FILLER_38_69
*1193 FILLER_38_81
*1194 FILLER_38_85
*1195 FILLER_38_97
*1196 FILLER_39_10
*1197 FILLER_39_105
*1198 FILLER_39_111
*1199 FILLER_39_113
*1200 FILLER_39_125
*1201 FILLER_39_137
*1202 FILLER_39_14
*1203 FILLER_39_149
*1204 FILLER_39_161
*1205 FILLER_39_167
*1206 FILLER_39_169
*1207 FILLER_39_181
*1208 FILLER_39_193
*1209 FILLER_39_205
*1210 FILLER_39_217
*1211 FILLER_39_223
*1212 FILLER_39_225
*1213 FILLER_39_237
*1214 FILLER_39_249
*1215 FILLER_39_261
*1216 FILLER_39_273
*1217 FILLER_39_279
*1218 FILLER_39_281
*1219 FILLER_39_293
*1220 FILLER_39_3
*1221 FILLER_39_33
*1222 FILLER_39_43
*1223 FILLER_39_47
*1224 FILLER_39_53
*1225 FILLER_39_57
*1226 FILLER_39_69
*1227 FILLER_39_81
*1228 FILLER_39_93
*1229 FILLER_3_105
*1230 FILLER_3_111
*1231 FILLER_3_113
*1232 FILLER_3_119
*1233 FILLER_3_131
*1234 FILLER_3_143
*1235 FILLER_3_155
*1236 FILLER_3_167
*1237 FILLER_3_169
*1238 FILLER_3_181
*1239 FILLER_3_193
*1240 FILLER_3_205
*1241 FILLER_3_217
*1242 FILLER_3_223
*1243 FILLER_3_225
*1244 FILLER_3_237
*1245 FILLER_3_249
*1246 FILLER_3_25
*1247 FILLER_3_261
*1248 FILLER_3_273
*1249 FILLER_3_279
*1250 FILLER_3_281
*1251 FILLER_3_293
*1252 FILLER_3_3
*1253 FILLER_3_37
*1254 FILLER_3_54
*1255 FILLER_3_57
*1256 FILLER_3_75
*1257 FILLER_3_79
*1258 FILLER_3_85
*1259 FILLER_3_94
*1260 FILLER_3_98
*1261 FILLER_40_109
*1262 FILLER_40_121
*1263 FILLER_40_13
*1264 FILLER_40_133
*1265 FILLER_40_139
*1266 FILLER_40_141
*1267 FILLER_40_153
*1268 FILLER_40_165
*1269 FILLER_40_177
*1270 FILLER_40_189
*1271 FILLER_40_195
*1272 FILLER_40_197
*1273 FILLER_40_209
*1274 FILLER_40_221
*1275 FILLER_40_233
*1276 FILLER_40_245
*1277 FILLER_40_25
*1278 FILLER_40_251
*1279 FILLER_40_253
*1280 FILLER_40_265
*1281 FILLER_40_277
*1282 FILLER_40_289
*1283 FILLER_40_29
*1284 FILLER_40_297
*1285 FILLER_40_3
*1286 FILLER_40_49
*1287 FILLER_40_61
*1288 FILLER_40_65
*1289 FILLER_40_73
*1290 FILLER_40_81
*1291 FILLER_40_85
*1292 FILLER_40_97
*1293 FILLER_41_105
*1294 FILLER_41_111
*1295 FILLER_41_113
*1296 FILLER_41_125
*1297 FILLER_41_137
*1298 FILLER_41_149
*1299 FILLER_41_161
*1300 FILLER_41_167
*1301 FILLER_41_169
*1302 FILLER_41_181
*1303 FILLER_41_193
*1304 FILLER_41_205
*1305 FILLER_41_217
*1306 FILLER_41_223
*1307 FILLER_41_225
*1308 FILLER_41_237
*1309 FILLER_41_249
*1310 FILLER_41_261
*1311 FILLER_41_27
*1312 FILLER_41_273
*1313 FILLER_41_279
*1314 FILLER_41_281
*1315 FILLER_41_293
*1316 FILLER_41_3
*1317 FILLER_41_35
*1318 FILLER_41_42
*1319 FILLER_41_54
*1320 FILLER_41_57
*1321 FILLER_41_69
*1322 FILLER_41_81
*1323 FILLER_41_93
*1324 FILLER_42_109
*1325 FILLER_42_121
*1326 FILLER_42_133
*1327 FILLER_42_139
*1328 FILLER_42_141
*1329 FILLER_42_15
*1330 FILLER_42_153
*1331 FILLER_42_165
*1332 FILLER_42_177
*1333 FILLER_42_189
*1334 FILLER_42_195
*1335 FILLER_42_197
*1336 FILLER_42_209
*1337 FILLER_42_221
*1338 FILLER_42_233
*1339 FILLER_42_245
*1340 FILLER_42_251
*1341 FILLER_42_253
*1342 FILLER_42_265
*1343 FILLER_42_27
*1344 FILLER_42_277
*1345 FILLER_42_289
*1346 FILLER_42_29
*1347 FILLER_42_297
*1348 FILLER_42_3
*1349 FILLER_42_41
*1350 FILLER_42_53
*1351 FILLER_42_65
*1352 FILLER_42_77
*1353 FILLER_42_83
*1354 FILLER_42_85
*1355 FILLER_42_97
*1356 FILLER_43_105
*1357 FILLER_43_111
*1358 FILLER_43_113
*1359 FILLER_43_125
*1360 FILLER_43_137
*1361 FILLER_43_149
*1362 FILLER_43_161
*1363 FILLER_43_167
*1364 FILLER_43_169
*1365 FILLER_43_181
*1366 FILLER_43_193
*1367 FILLER_43_20
*1368 FILLER_43_205
*1369 FILLER_43_217
*1370 FILLER_43_223
*1371 FILLER_43_225
*1372 FILLER_43_237
*1373 FILLER_43_249
*1374 FILLER_43_261
*1375 FILLER_43_273
*1376 FILLER_43_279
*1377 FILLER_43_281
*1378 FILLER_43_293
*1379 FILLER_43_3
*1380 FILLER_43_32
*1381 FILLER_43_38
*1382 FILLER_43_54
*1383 FILLER_43_57
*1384 FILLER_43_69
*1385 FILLER_43_81
*1386 FILLER_43_93
*1387 FILLER_44_109
*1388 FILLER_44_121
*1389 FILLER_44_133
*1390 FILLER_44_139
*1391 FILLER_44_141
*1392 FILLER_44_15
*1393 FILLER_44_153
*1394 FILLER_44_165
*1395 FILLER_44_177
*1396 FILLER_44_189
*1397 FILLER_44_195
*1398 FILLER_44_197
*1399 FILLER_44_209
*1400 FILLER_44_221
*1401 FILLER_44_233
*1402 FILLER_44_245
*1403 FILLER_44_251
*1404 FILLER_44_253
*1405 FILLER_44_265
*1406 FILLER_44_27
*1407 FILLER_44_277
*1408 FILLER_44_289
*1409 FILLER_44_29
*1410 FILLER_44_297
*1411 FILLER_44_3
*1412 FILLER_44_41
*1413 FILLER_44_53
*1414 FILLER_44_65
*1415 FILLER_44_77
*1416 FILLER_44_83
*1417 FILLER_44_85
*1418 FILLER_44_97
*1419 FILLER_45_105
*1420 FILLER_45_111
*1421 FILLER_45_113
*1422 FILLER_45_125
*1423 FILLER_45_13
*1424 FILLER_45_137
*1425 FILLER_45_149
*1426 FILLER_45_161
*1427 FILLER_45_167
*1428 FILLER_45_169
*1429 FILLER_45_181
*1430 FILLER_45_193
*1431 FILLER_45_205
*1432 FILLER_45_217
*1433 FILLER_45_223
*1434 FILLER_45_225
*1435 FILLER_45_237
*1436 FILLER_45_249
*1437 FILLER_45_25
*1438 FILLER_45_261
*1439 FILLER_45_273
*1440 FILLER_45_279
*1441 FILLER_45_281
*1442 FILLER_45_293
*1443 FILLER_45_3
*1444 FILLER_45_37
*1445 FILLER_45_49
*1446 FILLER_45_55
*1447 FILLER_45_57
*1448 FILLER_45_69
*1449 FILLER_45_81
*1450 FILLER_45_9
*1451 FILLER_45_93
*1452 FILLER_46_109
*1453 FILLER_46_121
*1454 FILLER_46_133
*1455 FILLER_46_139
*1456 FILLER_46_14
*1457 FILLER_46_141
*1458 FILLER_46_153
*1459 FILLER_46_165
*1460 FILLER_46_177
*1461 FILLER_46_189
*1462 FILLER_46_195
*1463 FILLER_46_197
*1464 FILLER_46_209
*1465 FILLER_46_221
*1466 FILLER_46_233
*1467 FILLER_46_245
*1468 FILLER_46_251
*1469 FILLER_46_253
*1470 FILLER_46_26
*1471 FILLER_46_265
*1472 FILLER_46_277
*1473 FILLER_46_289
*1474 FILLER_46_29
*1475 FILLER_46_297
*1476 FILLER_46_3
*1477 FILLER_46_41
*1478 FILLER_46_53
*1479 FILLER_46_65
*1480 FILLER_46_77
*1481 FILLER_46_83
*1482 FILLER_46_85
*1483 FILLER_46_97
*1484 FILLER_47_105
*1485 FILLER_47_111
*1486 FILLER_47_113
*1487 FILLER_47_125
*1488 FILLER_47_137
*1489 FILLER_47_149
*1490 FILLER_47_15
*1491 FILLER_47_161
*1492 FILLER_47_167
*1493 FILLER_47_169
*1494 FILLER_47_181
*1495 FILLER_47_193
*1496 FILLER_47_205
*1497 FILLER_47_217
*1498 FILLER_47_223
*1499 FILLER_47_225
*1500 FILLER_47_237
*1501 FILLER_47_249
*1502 FILLER_47_261
*1503 FILLER_47_27
*1504 FILLER_47_273
*1505 FILLER_47_279
*1506 FILLER_47_281
*1507 FILLER_47_293
*1508 FILLER_47_3
*1509 FILLER_47_39
*1510 FILLER_47_51
*1511 FILLER_47_55
*1512 FILLER_47_57
*1513 FILLER_47_69
*1514 FILLER_47_81
*1515 FILLER_47_93
*1516 FILLER_48_109
*1517 FILLER_48_121
*1518 FILLER_48_133
*1519 FILLER_48_139
*1520 FILLER_48_141
*1521 FILLER_48_15
*1522 FILLER_48_153
*1523 FILLER_48_165
*1524 FILLER_48_177
*1525 FILLER_48_189
*1526 FILLER_48_195
*1527 FILLER_48_197
*1528 FILLER_48_209
*1529 FILLER_48_221
*1530 FILLER_48_233
*1531 FILLER_48_245
*1532 FILLER_48_251
*1533 FILLER_48_253
*1534 FILLER_48_265
*1535 FILLER_48_27
*1536 FILLER_48_277
*1537 FILLER_48_289
*1538 FILLER_48_29
*1539 FILLER_48_297
*1540 FILLER_48_3
*1541 FILLER_48_41
*1542 FILLER_48_53
*1543 FILLER_48_65
*1544 FILLER_48_77
*1545 FILLER_48_83
*1546 FILLER_48_85
*1547 FILLER_48_97
*1548 FILLER_49_105
*1549 FILLER_49_111
*1550 FILLER_49_113
*1551 FILLER_49_125
*1552 FILLER_49_137
*1553 FILLER_49_149
*1554 FILLER_49_15
*1555 FILLER_49_161
*1556 FILLER_49_167
*1557 FILLER_49_169
*1558 FILLER_49_181
*1559 FILLER_49_193
*1560 FILLER_49_205
*1561 FILLER_49_217
*1562 FILLER_49_223
*1563 FILLER_49_225
*1564 FILLER_49_237
*1565 FILLER_49_249
*1566 FILLER_49_261
*1567 FILLER_49_27
*1568 FILLER_49_273
*1569 FILLER_49_279
*1570 FILLER_49_281
*1571 FILLER_49_293
*1572 FILLER_49_3
*1573 FILLER_49_39
*1574 FILLER_49_51
*1575 FILLER_49_55
*1576 FILLER_49_57
*1577 FILLER_49_69
*1578 FILLER_49_81
*1579 FILLER_49_93
*1580 FILLER_4_103
*1581 FILLER_4_107
*1582 FILLER_4_113
*1583 FILLER_4_125
*1584 FILLER_4_137
*1585 FILLER_4_141
*1586 FILLER_4_153
*1587 FILLER_4_165
*1588 FILLER_4_177