*SPEF "ieee 1481-1999"
*DESIGN "Asma_Mohsin_conv_enc_core"
*DATE "11:11:11 Fri 11 11, 1111"
*VENDOR "OpenRCX"
*PROGRAM "Parallel Extraction"
*VERSION "1.0"
*DESIGN_FLOW "NAME_SCOPE LOCAL" "PIN_CAP NONE"
*DIVIDER /
*DELIMITER :
*BUS_DELIMITER []
*T_UNIT 1 NS
*C_UNIT 1 PF
*R_UNIT 1 OHM
*L_UNIT 1 HENRY

*NAME_MAP
*1 io_in[0]
*2 io_in[1]
*3 io_in[2]
*4 io_in[3]
*5 io_in[4]
*6 io_in[5]
*7 io_in[6]
*8 io_in[7]
*9 io_out[0]
*10 io_out[1]
*11 net4
*12 net5
*13 net6
*14 net7
*15 net8
*16 net9
*19 _00_
*20 _01_
*21 _02_
*22 _03_
*23 _04_
*24 _05_
*25 _06_
*26 _07_
*27 _08_
*28 _09_
*29 _10_
*30 _11_
*31 _12_
*32 clknet_0_io_in[0]
*33 clknet_1_0__leaf_io_in[0]
*34 clknet_1_1__leaf_io_in[0]
*35 net1
*36 net2
*37 net3
*38 shift_reg\[0\]
*39 shift_reg\[1\]
*40 shift_reg\[2\]
*41 shift_reg\[3\]
*42 shift_reg\[4\]
*43 Asma_Mohsin_conv_enc_core_4
*44 Asma_Mohsin_conv_enc_core_5
*45 Asma_Mohsin_conv_enc_core_6
*46 Asma_Mohsin_conv_enc_core_7
*47 Asma_Mohsin_conv_enc_core_8
*48 Asma_Mohsin_conv_enc_core_9
*49 FILLER_0_109
*50 FILLER_0_113
*51 FILLER_0_125
*52 FILLER_0_137
*53 FILLER_0_141
*54 FILLER_0_153
*55 FILLER_0_165
*56 FILLER_0_169
*57 FILLER_0_181
*58 FILLER_0_193
*59 FILLER_0_197
*60 FILLER_0_209
*61 FILLER_0_221
*62 FILLER_0_225
*63 FILLER_0_237
*64 FILLER_0_249
*65 FILLER_0_253
*66 FILLER_0_26
*67 FILLER_0_265
*68 FILLER_0_277
*69 FILLER_0_281
*70 FILLER_0_29
*71 FILLER_0_293
*72 FILLER_0_3
*73 FILLER_0_51
*74 FILLER_0_55
*75 FILLER_0_57
*76 FILLER_0_69
*77 FILLER_0_81
*78 FILLER_0_85
*79 FILLER_0_97
*80 FILLER_10_10
*81 FILLER_10_109
*82 FILLER_10_121
*83 FILLER_10_133
*84 FILLER_10_139
*85 FILLER_10_141
*86 FILLER_10_153
*87 FILLER_10_165
*88 FILLER_10_17
*89 FILLER_10_177
*90 FILLER_10_189
*91 FILLER_10_195
*92 FILLER_10_197
*93 FILLER_10_209
*94 FILLER_10_221
*95 FILLER_10_233
*96 FILLER_10_245
*97 FILLER_10_25
*98 FILLER_10_251
*99 FILLER_10_253
*100 FILLER_10_265
*101 FILLER_10_277
*102 FILLER_10_289
*103 FILLER_10_29
*104 FILLER_10_297
*105 FILLER_10_3
*106 FILLER_10_41
*107 FILLER_10_53
*108 FILLER_10_65
*109 FILLER_10_77
*110 FILLER_10_83
*111 FILLER_10_85
*112 FILLER_10_97
*113 FILLER_11_105
*114 FILLER_11_111
*115 FILLER_11_113
*116 FILLER_11_125
*117 FILLER_11_137
*118 FILLER_11_149
*119 FILLER_11_15
*120 FILLER_11_161
*121 FILLER_11_167
*122 FILLER_11_169
*123 FILLER_11_181
*124 FILLER_11_193
*125 FILLER_11_205
*126 FILLER_11_217
*127 FILLER_11_223
*128 FILLER_11_225
*129 FILLER_11_237
*130 FILLER_11_249
*131 FILLER_11_261
*132 FILLER_11_27
*133 FILLER_11_273
*134 FILLER_11_279
*135 FILLER_11_281
*136 FILLER_11_293
*137 FILLER_11_3
*138 FILLER_11_39
*139 FILLER_11_51
*140 FILLER_11_55
*141 FILLER_11_57
*142 FILLER_11_69
*143 FILLER_11_81
*144 FILLER_11_9
*145 FILLER_11_93
*146 FILLER_12_10
*147 FILLER_12_109
*148 FILLER_12_121
*149 FILLER_12_133
*150 FILLER_12_139
*151 FILLER_12_141
*152 FILLER_12_153
*153 FILLER_12_165
*154 FILLER_12_17
*155 FILLER_12_177
*156 FILLER_12_189
*157 FILLER_12_195
*158 FILLER_12_197
*159 FILLER_12_209
*160 FILLER_12_221
*161 FILLER_12_233
*162 FILLER_12_245
*163 FILLER_12_25
*164 FILLER_12_251
*165 FILLER_12_253
*166 FILLER_12_265
*167 FILLER_12_277
*168 FILLER_12_289
*169 FILLER_12_29
*170 FILLER_12_297
*171 FILLER_12_3
*172 FILLER_12_41
*173 FILLER_12_53
*174 FILLER_12_65
*175 FILLER_12_77
*176 FILLER_12_83
*177 FILLER_12_85
*178 FILLER_12_97
*179 FILLER_13_105
*180 FILLER_13_111
*181 FILLER_13_113
*182 FILLER_13_125
*183 FILLER_13_137
*184 FILLER_13_149
*185 FILLER_13_16
*186 FILLER_13_161
*187 FILLER_13_167
*188 FILLER_13_169
*189 FILLER_13_181
*190 FILLER_13_193
*191 FILLER_13_205
*192 FILLER_13_217
*193 FILLER_13_22
*194 FILLER_13_223
*195 FILLER_13_225
*196 FILLER_13_237
*197 FILLER_13_249
*198 FILLER_13_261
*199 FILLER_13_273
*200 FILLER_13_279
*201 FILLER_13_28
*202 FILLER_13_281
*203 FILLER_13_293
*204 FILLER_13_3
*205 FILLER_13_40
*206 FILLER_13_52
*207 FILLER_13_57
*208 FILLER_13_69
*209 FILLER_13_81
*210 FILLER_13_9
*211 FILLER_13_93
*212 FILLER_14_109
*213 FILLER_14_12
*214 FILLER_14_121
*215 FILLER_14_133
*216 FILLER_14_139
*217 FILLER_14_141
*218 FILLER_14_153
*219 FILLER_14_165
*220 FILLER_14_177
*221 FILLER_14_189
*222 FILLER_14_195
*223 FILLER_14_197
*224 FILLER_14_209
*225 FILLER_14_221
*226 FILLER_14_233
*227 FILLER_14_24
*228 FILLER_14_245
*229 FILLER_14_251
*230 FILLER_14_253
*231 FILLER_14_265
*232 FILLER_14_277
*233 FILLER_14_289
*234 FILLER_14_29
*235 FILLER_14_297
*236 FILLER_14_3
*237 FILLER_14_41
*238 FILLER_14_53
*239 FILLER_14_65
*240 FILLER_14_77
*241 FILLER_14_83
*242 FILLER_14_85
*243 FILLER_14_97
*244 FILLER_15_105
*245 FILLER_15_111
*246 FILLER_15_113
*247 FILLER_15_125
*248 FILLER_15_137
*249 FILLER_15_149
*250 FILLER_15_161
*251 FILLER_15_167
*252 FILLER_15_169
*253 FILLER_15_181
*254 FILLER_15_193
*255 FILLER_15_205
*256 FILLER_15_21
*257 FILLER_15_217
*258 FILLER_15_223
*259 FILLER_15_225
*260 FILLER_15_237
*261 FILLER_15_249
*262 FILLER_15_261
*263 FILLER_15_273
*264 FILLER_15_279
*265 FILLER_15_281
*266 FILLER_15_293
*267 FILLER_15_3
*268 FILLER_15_33
*269 FILLER_15_45
*270 FILLER_15_53
*271 FILLER_15_57
*272 FILLER_15_69
*273 FILLER_15_81
*274 FILLER_15_9
*275 FILLER_15_93
*276 FILLER_16_109
*277 FILLER_16_121
*278 FILLER_16_133
*279 FILLER_16_139
*280 FILLER_16_141
*281 FILLER_16_153
*282 FILLER_16_165
*283 FILLER_16_177
*284 FILLER_16_18
*285 FILLER_16_189
*286 FILLER_16_195
*287 FILLER_16_197
*288 FILLER_16_209
*289 FILLER_16_221
*290 FILLER_16_233
*291 FILLER_16_245
*292 FILLER_16_251
*293 FILLER_16_253
*294 FILLER_16_26
*295 FILLER_16_265
*296 FILLER_16_277
*297 FILLER_16_289
*298 FILLER_16_29
*299 FILLER_16_297
*300 FILLER_16_3
*301 FILLER_16_41
*302 FILLER_16_53
*303 FILLER_16_65
*304 FILLER_16_77
*305 FILLER_16_83
*306 FILLER_16_85
*307 FILLER_16_97
*308 FILLER_17_105
*309 FILLER_17_111
*310 FILLER_17_113
*311 FILLER_17_125
*312 FILLER_17_137
*313 FILLER_17_149
*314 FILLER_17_161
*315 FILLER_17_167
*316 FILLER_17_169
*317 FILLER_17_181
*318 FILLER_17_193
*319 FILLER_17_205
*320 FILLER_17_217
*321 FILLER_17_223
*322 FILLER_17_225
*323 FILLER_17_237
*324 FILLER_17_24
*325 FILLER_17_249
*326 FILLER_17_261
*327 FILLER_17_273
*328 FILLER_17_279
*329 FILLER_17_281
*330 FILLER_17_293
*331 FILLER_17_3
*332 FILLER_17_36
*333 FILLER_17_48
*334 FILLER_17_57
*335 FILLER_17_69
*336 FILLER_17_81
*337 FILLER_17_93
*338 FILLER_18_109
*339 FILLER_18_121
*340 FILLER_18_133
*341 FILLER_18_139
*342 FILLER_18_141
*343 FILLER_18_153
*344 FILLER_18_165
*345 FILLER_18_177
*346 FILLER_18_189
*347 FILLER_18_19
*348 FILLER_18_195
*349 FILLER_18_197
*350 FILLER_18_209
*351 FILLER_18_221
*352 FILLER_18_233
*353 FILLER_18_245
*354 FILLER_18_251
*355 FILLER_18_253
*356 FILLER_18_265
*357 FILLER_18_27
*358 FILLER_18_277
*359 FILLER_18_289
*360 FILLER_18_29
*361 FILLER_18_297
*362 FILLER_18_3
*363 FILLER_18_41
*364 FILLER_18_53
*365 FILLER_18_65
*366 FILLER_18_77
*367 FILLER_18_83
*368 FILLER_18_85
*369 FILLER_18_97
*370 FILLER_19_105
*371 FILLER_19_111
*372 FILLER_19_113
*373 FILLER_19_125
*374 FILLER_19_137
*375 FILLER_19_149
*376 FILLER_19_16
*377 FILLER_19_161
*378 FILLER_19_167
*379 FILLER_19_169
*380 FILLER_19_181
*381 FILLER_19_193
*382 FILLER_19_205
*383 FILLER_19_217
*384 FILLER_19_223
*385 FILLER_19_225
*386 FILLER_19_237
*387 FILLER_19_249
*388 FILLER_19_261
*389 FILLER_19_273
*390 FILLER_19_279
*391 FILLER_19_281
*392 FILLER_19_293
*393 FILLER_19_3
*394 FILLER_19_40
*395 FILLER_19_52
*396 FILLER_19_57
*397 FILLER_19_69
*398 FILLER_19_8
*399 FILLER_19_81
*400 FILLER_19_93
*401 FILLER_1_105
*402 FILLER_1_111
*403 FILLER_1_113
*404 FILLER_1_125
*405 FILLER_1_137
*406 FILLER_1_149
*407 FILLER_1_161
*408 FILLER_1_167
*409 FILLER_1_169
*410 FILLER_1_181
*411 FILLER_1_193
*412 FILLER_1_205
*413 FILLER_1_217
*414 FILLER_1_223
*415 FILLER_1_225
*416 FILLER_1_237
*417 FILLER_1_249
*418 FILLER_1_261
*419 FILLER_1_273
*420 FILLER_1_279
*421 FILLER_1_28
*422 FILLER_1_281
*423 FILLER_1_293
*424 FILLER_1_3
*425 FILLER_1_52
*426 FILLER_1_57
*427 FILLER_1_69
*428 FILLER_1_81
*429 FILLER_1_93
*430 FILLER_20_109
*431 FILLER_20_121
*432 FILLER_20_133
*433 FILLER_20_139
*434 FILLER_20_141
*435 FILLER_20_15
*436 FILLER_20_153
*437 FILLER_20_165
*438 FILLER_20_177
*439 FILLER_20_189
*440 FILLER_20_195
*441 FILLER_20_197
*442 FILLER_20_209
*443 FILLER_20_221
*444 FILLER_20_233
*445 FILLER_20_245
*446 FILLER_20_251
*447 FILLER_20_253
*448 FILLER_20_265
*449 FILLER_20_27
*450 FILLER_20_277
*451 FILLER_20_289
*452 FILLER_20_29
*453 FILLER_20_297
*454 FILLER_20_3
*455 FILLER_20_41
*456 FILLER_20_53
*457 FILLER_20_65
*458 FILLER_20_77
*459 FILLER_20_83
*460 FILLER_20_85
*461 FILLER_20_97
*462 FILLER_21_105
*463 FILLER_21_111
*464 FILLER_21_113
*465 FILLER_21_125
*466 FILLER_21_137
*467 FILLER_21_149
*468 FILLER_21_161
*469 FILLER_21_167
*470 FILLER_21_169
*471 FILLER_21_181
*472 FILLER_21_193
*473 FILLER_21_205
*474 FILLER_21_217
*475 FILLER_21_223
*476 FILLER_21_225
*477 FILLER_21_237
*478 FILLER_21_249
*479 FILLER_21_261
*480 FILLER_21_27
*481 FILLER_21_273
*482 FILLER_21_279
*483 FILLER_21_281
*484 FILLER_21_293
*485 FILLER_21_3
*486 FILLER_21_39
*487 FILLER_21_51
*488 FILLER_21_55
*489 FILLER_21_57
*490 FILLER_21_69
*491 FILLER_21_81
*492 FILLER_21_93
*493 FILLER_22_109
*494 FILLER_22_121
*495 FILLER_22_133
*496 FILLER_22_139
*497 FILLER_22_141
*498 FILLER_22_15
*499 FILLER_22_153
*500 FILLER_22_165
*501 FILLER_22_177
*502 FILLER_22_189
*503 FILLER_22_195
*504 FILLER_22_197
*505 FILLER_22_209
*506 FILLER_22_221
*507 FILLER_22_233
*508 FILLER_22_245
*509 FILLER_22_251
*510 FILLER_22_253
*511 FILLER_22_265
*512 FILLER_22_27
*513 FILLER_22_277
*514 FILLER_22_289
*515 FILLER_22_29
*516 FILLER_22_297
*517 FILLER_22_3
*518 FILLER_22_41
*519 FILLER_22_53
*520 FILLER_22_65
*521 FILLER_22_77
*522 FILLER_22_83
*523 FILLER_22_85
*524 FILLER_22_97
*525 FILLER_23_105
*526 FILLER_23_111
*527 FILLER_23_113
*528 FILLER_23_125
*529 FILLER_23_137
*530 FILLER_23_149
*531 FILLER_23_15
*532 FILLER_23_161
*533 FILLER_23_167
*534 FILLER_23_169
*535 FILLER_23_181
*536 FILLER_23_193
*537 FILLER_23_205
*538 FILLER_23_217
*539 FILLER_23_223
*540 FILLER_23_225
*541 FILLER_23_237
*542 FILLER_23_249
*543 FILLER_23_261
*544 FILLER_23_27
*545 FILLER_23_273
*546 FILLER_23_279
*547 FILLER_23_281
*548 FILLER_23_293
*549 FILLER_23_3
*550 FILLER_23_39
*551 FILLER_23_51
*552 FILLER_23_55
*553 FILLER_23_57
*554 FILLER_23_69
*555 FILLER_23_81
*556 FILLER_23_93
*557 FILLER_24_109
*558 FILLER_24_121
*559 FILLER_24_133
*560 FILLER_24_139
*561 FILLER_24_141
*562 FILLER_24_15
*563 FILLER_24_153
*564 FILLER_24_165
*565 FILLER_24_177
*566 FILLER_24_189
*567 FILLER_24_195
*568 FILLER_24_197
*569 FILLER_24_209
*570 FILLER_24_221
*571 FILLER_24_233
*572 FILLER_24_245
*573 FILLER_24_251
*574 FILLER_24_253
*575 FILLER_24_265
*576 FILLER_24_27
*577 FILLER_24_277
*578 FILLER_24_289
*579 FILLER_24_29
*580 FILLER_24_297
*581 FILLER_24_3
*582 FILLER_24_41
*583 FILLER_24_53
*584 FILLER_24_65
*585 FILLER_24_77
*586 FILLER_24_83
*587 FILLER_24_85
*588 FILLER_24_97
*589 FILLER_25_105
*590 FILLER_25_111
*591 FILLER_25_113
*592 FILLER_25_125
*593 FILLER_25_137
*594 FILLER_25_149
*595 FILLER_25_15
*596 FILLER_25_161
*597 FILLER_25_167
*598 FILLER_25_169
*599 FILLER_25_181
*600 FILLER_25_193
*601 FILLER_25_205
*602 FILLER_25_217
*603 FILLER_25_223
*604 FILLER_25_225
*605 FILLER_25_237
*606 FILLER_25_249
*607 FILLER_25_261
*608 FILLER_25_27
*609 FILLER_25_273
*610 FILLER_25_279
*611 FILLER_25_281
*612 FILLER_25_293
*613 FILLER_25_3
*614 FILLER_25_39
*615 FILLER_25_51
*616 FILLER_25_55
*617 FILLER_25_57
*618 FILLER_25_69
*619 FILLER_25_81
*620 FILLER_25_93
*621 FILLER_26_109
*622 FILLER_26_121
*623 FILLER_26_133
*624 FILLER_26_139
*625 FILLER_26_141
*626 FILLER_26_15
*627 FILLER_26_153
*628 FILLER_26_165
*629 FILLER_26_177
*630 FILLER_26_189
*631 FILLER_26_195
*632 FILLER_26_197
*633 FILLER_26_209
*634 FILLER_26_221
*635 FILLER_26_233
*636 FILLER_26_245
*637 FILLER_26_251
*638 FILLER_26_253
*639 FILLER_26_265
*640 FILLER_26_27
*641 FILLER_26_277
*642 FILLER_26_289
*643 FILLER_26_29
*644 FILLER_26_297
*645 FILLER_26_3
*646 FILLER_26_41
*647 FILLER_26_53
*648 FILLER_26_65
*649 FILLER_26_77
*650 FILLER_26_83
*651 FILLER_26_85
*652 FILLER_26_97
*653 FILLER_27_105
*654 FILLER_27_111
*655 FILLER_27_113
*656 FILLER_27_125
*657 FILLER_27_137
*658 FILLER_27_149
*659 FILLER_27_15
*660 FILLER_27_161
*661 FILLER_27_167
*662 FILLER_27_169
*663 FILLER_27_181
*664 FILLER_27_193
*665 FILLER_27_205
*666 FILLER_27_217
*667 FILLER_27_223
*668 FILLER_27_225
*669 FILLER_27_237
*670 FILLER_27_249
*671 FILLER_27_261
*672 FILLER_27_27
*673 FILLER_27_273
*674 FILLER_27_279
*675 FILLER_27_281
*676 FILLER_27_293
*677 FILLER_27_3
*678 FILLER_27_39
*679 FILLER_27_51
*680 FILLER_27_55
*681 FILLER_27_57
*682 FILLER_27_69
*683 FILLER_27_81
*684 FILLER_27_93
*685 FILLER_28_109
*686 FILLER_28_121
*687 FILLER_28_133
*688 FILLER_28_139
*689 FILLER_28_141
*690 FILLER_28_15
*691 FILLER_28_153
*692 FILLER_28_165
*693 FILLER_28_177
*694 FILLER_28_189
*695 FILLER_28_195
*696 FILLER_28_197
*697 FILLER_28_209
*698 FILLER_28_221
*699 FILLER_28_233
*700 FILLER_28_245
*701 FILLER_28_251
*702 FILLER_28_253
*703 FILLER_28_265
*704 FILLER_28_27
*705 FILLER_28_277
*706 FILLER_28_289
*707 FILLER_28_29
*708 FILLER_28_297
*709 FILLER_28_3
*710 FILLER_28_41
*711 FILLER_28_53
*712 FILLER_28_65
*713 FILLER_28_77
*714 FILLER_28_83
*715 FILLER_28_85
*716 FILLER_28_97
*717 FILLER_29_105
*718 FILLER_29_111
*719 FILLER_29_113
*720 FILLER_29_125
*721 FILLER_29_137
*722 FILLER_29_149
*723 FILLER_29_15
*724 FILLER_29_161
*725 FILLER_29_167
*726 FILLER_29_169
*727 FILLER_29_181
*728 FILLER_29_193
*729 FILLER_29_205
*730 FILLER_29_217
*731 FILLER_29_223
*732 FILLER_29_225
*733 FILLER_29_237
*734 FILLER_29_249
*735 FILLER_29_261
*736 FILLER_29_27
*737 FILLER_29_273
*738 FILLER_29_279
*739 FILLER_29_281
*740 FILLER_29_293
*741 FILLER_29_3
*742 FILLER_29_39
*743 FILLER_29_51
*744 FILLER_29_55
*745 FILLER_29_57
*746 FILLER_29_69
*747 FILLER_29_81
*748 FILLER_29_93
*749 FILLER_2_109
*750 FILLER_2_121
*751 FILLER_2_133
*752 FILLER_2_139
*753 FILLER_2_141
*754 FILLER_2_153
*755 FILLER_2_165
*756 FILLER_2_177
*757 FILLER_2_189
*758 FILLER_2_195
*759 FILLER_2_197
*760 FILLER_2_209
*761 FILLER_2_221
*762 FILLER_2_233
*763 FILLER_2_245
*764 FILLER_2_251
*765 FILLER_2_253
*766 FILLER_2_26
*767 FILLER_2_265
*768 FILLER_2_277
*769 FILLER_2_289
*770 FILLER_2_29
*771 FILLER_2_297
*772 FILLER_2_3
*773 FILLER_2_41
*774 FILLER_2_53
*775 FILLER_2_65
*776 FILLER_2_77
*777 FILLER_2_83
*778 FILLER_2_85
*779 FILLER_2_97
*780 FILLER_30_109
*781 FILLER_30_121
*782 FILLER_30_133
*783 FILLER_30_139
*784 FILLER_30_141
*785 FILLER_30_15
*786 FILLER_30_153
*787 FILLER_30_165
*788 FILLER_30_177
*789 FILLER_30_189
*790 FILLER_30_195
*791 FILLER_30_197
*792 FILLER_30_209
*793 FILLER_30_221
*794 FILLER_30_233
*795 FILLER_30_245
*796 FILLER_30_251
*797 FILLER_30_253
*798 FILLER_30_265
*799 FILLER_30_27
*800 FILLER_30_277
*801 FILLER_30_289
*802 FILLER_30_29
*803 FILLER_30_297
*804 FILLER_30_3
*805 FILLER_30_41
*806 FILLER_30_53
*807 FILLER_30_65
*808 FILLER_30_77
*809 FILLER_30_83
*810 FILLER_30_85
*811 FILLER_30_97
*812 FILLER_31_105
*813 FILLER_31_111
*814 FILLER_31_113
*815 FILLER_31_125
*816 FILLER_31_137
*817 FILLER_31_149
*818 FILLER_31_15
*819 FILLER_31_161
*820 FILLER_31_167
*821 FILLER_31_169
*822 FILLER_31_181
*823 FILLER_31_193
*824 FILLER_31_205
*825 FILLER_31_217
*826 FILLER_31_223
*827 FILLER_31_225
*828 FILLER_31_237
*829 FILLER_31_249
*830 FILLER_31_261
*831 FILLER_31_27
*832 FILLER_31_273
*833 FILLER_31_279
*834 FILLER_31_281
*835 FILLER_31_293
*836 FILLER_31_3
*837 FILLER_31_39
*838 FILLER_31_51
*839 FILLER_31_55
*840 FILLER_31_57
*841 FILLER_31_69
*842 FILLER_31_81
*843 FILLER_31_93
*844 FILLER_32_109
*845 FILLER_32_121
*846 FILLER_32_133
*847 FILLER_32_139
*848 FILLER_32_141
*849 FILLER_32_15
*850 FILLER_32_153
*851 FILLER_32_165
*852 FILLER_32_177
*853 FILLER_32_189
*854 FILLER_32_195
*855 FILLER_32_197
*856 FILLER_32_209
*857 FILLER_32_221
*858 FILLER_32_233
*859 FILLER_32_245
*860 FILLER_32_251
*861 FILLER_32_253
*862 FILLER_32_265
*863 FILLER_32_27
*864 FILLER_32_277
*865 FILLER_32_289
*866 FILLER_32_29
*867 FILLER_32_297
*868 FILLER_32_3
*869 FILLER_32_41
*870 FILLER_32_53
*871 FILLER_32_65
*872 FILLER_32_77
*873 FILLER_32_83
*874 FILLER_32_85
*875 FILLER_32_97
*876 FILLER_33_105
*877 FILLER_33_111
*878 FILLER_33_113
*879 FILLER_33_125
*880 FILLER_33_137
*881 FILLER_33_149
*882 FILLER_33_15
*883 FILLER_33_161
*884 FILLER_33_167
*885 FILLER_33_169
*886 FILLER_33_181
*887 FILLER_33_193
*888 FILLER_33_205
*889 FILLER_33_217
*890 FILLER_33_223
*891 FILLER_33_225
*892 FILLER_33_237
*893 FILLER_33_249
*894 FILLER_33_261
*895 FILLER_33_27
*896 FILLER_33_273
*897 FILLER_33_279
*898 FILLER_33_281
*899 FILLER_33_293
*900 FILLER_33_3
*901 FILLER_33_39
*902 FILLER_33_51
*903 FILLER_33_55
*904 FILLER_33_57
*905 FILLER_33_69
*906 FILLER_33_81
*907 FILLER_33_93
*908 FILLER_34_109
*909 FILLER_34_121
*910 FILLER_34_133
*911 FILLER_34_139
*912 FILLER_34_141
*913 FILLER_34_15
*914 FILLER_34_153
*915 FILLER_34_165
*916 FILLER_34_177
*917 FILLER_34_189
*918 FILLER_34_195
*919 FILLER_34_197
*920 FILLER_34_209
*921 FILLER_34_221
*922 FILLER_34_233
*923 FILLER_34_245
*924 FILLER_34_251
*925 FILLER_34_253
*926 FILLER_34_265
*927 FILLER_34_27
*928 FILLER_34_277
*929 FILLER_34_289
*930 FILLER_34_29
*931 FILLER_34_297
*932 FILLER_34_3
*933 FILLER_34_41
*934 FILLER_34_53
*935 FILLER_34_65
*936 FILLER_34_77
*937 FILLER_34_83
*938 FILLER_34_85
*939 FILLER_34_97
*940 FILLER_35_105
*941 FILLER_35_111
*942 FILLER_35_113
*943 FILLER_35_125
*944 FILLER_35_137
*945 FILLER_35_149
*946 FILLER_35_15
*947 FILLER_35_161
*948 FILLER_35_167
*949 FILLER_35_169
*950 FILLER_35_181
*951 FILLER_35_193
*952 FILLER_35_205
*953 FILLER_35_217
*954 FILLER_35_223
*955 FILLER_35_225
*956 FILLER_35_237
*957 FILLER_35_249
*958 FILLER_35_261
*959 FILLER_35_27
*960 FILLER_35_273
*961 FILLER_35_279
*962 FILLER_35_281
*963 FILLER_35_293
*964 FILLER_35_3
*965 FILLER_35_39
*966 FILLER_35_51
*967 FILLER_35_55
*968 FILLER_35_57
*969 FILLER_35_69
*970 FILLER_35_81
*971 FILLER_35_93
*972 FILLER_36_109
*973 FILLER_36_121
*974 FILLER_36_133
*975 FILLER_36_139
*976 FILLER_36_141
*977 FILLER_36_15
*978 FILLER_36_153
*979 FILLER_36_165
*980 FILLER_36_177
*981 FILLER_36_189
*982 FILLER_36_195
*983 FILLER_36_197
*984 FILLER_36_209
*985 FILLER_36_221
*986 FILLER_36_233
*987 FILLER_36_245
*988 FILLER_36_251
*989 FILLER_36_253
*990 FILLER_36_265
*991 FILLER_36_27
*992 FILLER_36_277
*993 FILLER_36_289
*994 FILLER_36_29
*995 FILLER_36_297
*996 FILLER_36_3
*997 FILLER_36_41
*998 FILLER_36_53
*999 FILLER_36_65
*1000 FILLER_36_77
*1001 FILLER_36_83
*1002 FILLER_36_85
*1003 FILLER_36_97
*1004 FILLER_37_105
*1005 FILLER_37_111
*1006 FILLER_37_113
*1007 FILLER_37_125
*1008 FILLER_37_137
*1009 FILLER_37_149
*1010 FILLER_37_15
*1011 FILLER_37_161
*1012 FILLER_37_167
*1013 FILLER_37_169
*1014 FILLER_37_181
*1015 FILLER_37_193
*1016 FILLER_37_205
*1017 FILLER_37_217
*1018 FILLER_37_223
*1019 FILLER_37_225
*1020 FILLER_37_237
*1021 FILLER_37_249
*1022 FILLER_37_261
*1023 FILLER_37_27
*1024 FILLER_37_273
*1025 FILLER_37_279
*1026 FILLER_37_281
*1027 FILLER_37_293
*1028 FILLER_37_3
*1029 FILLER_37_39
*1030 FILLER_37_51
*1031 FILLER_37_55
*1032 FILLER_37_57
*1033 FILLER_37_69
*1034 FILLER_37_81
*1035 FILLER_37_93
*1036 FILLER_38_109
*1037 FILLER_38_121
*1038 FILLER_38_133
*1039 FILLER_38_139
*1040 FILLER_38_141
*1041 FILLER_38_15
*1042 FILLER_38_153
*1043 FILLER_38_165
*1044 FILLER_38_177
*1045 FILLER_38_189
*1046 FILLER_38_195
*1047 FILLER_38_197
*1048 FILLER_38_209
*1049 FILLER_38_221
*1050 FILLER_38_233
*1051 FILLER_38_245
*1052 FILLER_38_251
*1053 FILLER_38_253
*1054 FILLER_38_265
*1055 FILLER_38_27
*1056 FILLER_38_277
*1057 FILLER_38_289
*1058 FILLER_38_29
*1059 FILLER_38_297
*1060 FILLER_38_3
*1061 FILLER_38_41
*1062 FILLER_38_53
*1063 FILLER_38_65
*1064 FILLER_38_77
*1065 FILLER_38_83
*1066 FILLER_38_85
*1067 FILLER_38_97
*1068 FILLER_39_105
*1069 FILLER_39_111
*1070 FILLER_39_113
*1071 FILLER_39_125
*1072 FILLER_39_137
*1073 FILLER_39_149
*1074 FILLER_39_161
*1075 FILLER_39_167
*1076 FILLER_39_169
*1077 FILLER_39_181
*1078 FILLER_39_193
*1079 FILLER_39_20
*1080 FILLER_39_205
*1081 FILLER_39_217
*1082 FILLER_39_223
*1083 FILLER_39_225
*1084 FILLER_39_237
*1085 FILLER_39_249
*1086 FILLER_39_261
*1087 FILLER_39_273
*1088 FILLER_39_279
*1089 FILLER_39_281
*1090 FILLER_39_293
*1091 FILLER_39_3
*1092 FILLER_39_32
*1093 FILLER_39_44
*1094 FILLER_39_57
*1095 FILLER_39_69
*1096 FILLER_39_8
*1097 FILLER_39_81
*1098 FILLER_39_93
*1099 FILLER_3_105
*1100 FILLER_3_111
*1101 FILLER_3_113
*1102 FILLER_3_125
*1103 FILLER_3_137
*1104 FILLER_3_149
*1105 FILLER_3_161
*1106 FILLER_3_167
*1107 FILLER_3_169
*1108 FILLER_3_181
*1109 FILLER_3_193
*1110 FILLER_3_205
*1111 FILLER_3_217
*1112 FILLER_3_223
*1113 FILLER_3_225
*1114 FILLER_3_237
*1115 FILLER_3_249
*1116 FILLER_3_261
*1117 FILLER_3_27
*1118 FILLER_3_273
*1119 FILLER_3_279
*1120 FILLER_3_281
*1121 FILLER_3_293
*1122 FILLER_3_3
*1123 FILLER_3_39
*1124 FILLER_3_51
*1125 FILLER_3_55
*1126 FILLER_3_57
*1127 FILLER_3_69
*1128 FILLER_3_81
*1129 FILLER_3_93
*1130 FILLER_40_109
*1131 FILLER_40_121
*1132 FILLER_40_133
*1133 FILLER_40_139
*1134 FILLER_40_141
*1135 FILLER_40_15
*1136 FILLER_40_153
*1137 FILLER_40_165
*1138 FILLER_40_177
*1139 FILLER_40_189
*1140 FILLER_40_195
*1141 FILLER_40_197
*1142 FILLER_40_209
*1143 FILLER_40_221
*1144 FILLER_40_233
*1145 FILLER_40_245
*1146 FILLER_40_251
*1147 FILLER_40_253
*1148 FILLER_40_265
*1149 FILLER_40_27
*1150 FILLER_40_277
*1151 FILLER_40_289
*1152 FILLER_40_29
*1153 FILLER_40_297
*1154 FILLER_40_3
*1155 FILLER_40_41
*1156 FILLER_40_53
*1157 FILLER_40_65
*1158 FILLER_40_77
*1159 FILLER_40_83
*1160 FILLER_40_85
*1161 FILLER_40_97
*1162 FILLER_41_105
*1163 FILLER_41_111
*1164 FILLER_41_113
*1165 FILLER_41_125
*1166 FILLER_41_137
*1167 FILLER_41_149
*1168 FILLER_41_15
*1169 FILLER_41_161
*1170 FILLER_41_167
*1171 FILLER_41_169
*1172 FILLER_41_181
*1173 FILLER_41_193
*1174 FILLER_41_205
*1175 FILLER_41_217
*1176 FILLER_41_223
*1177 FILLER_41_225
*1178 FILLER_41_237
*1179 FILLER_41_249
*1180 FILLER_41_261
*1181 FILLER_41_27
*1182 FILLER_41_273
*1183 FILLER_41_279
*1184 FILLER_41_281
*1185 FILLER_41_293
*1186 FILLER_41_3
*1187 FILLER_41_39
*1188 FILLER_41_51
*1189 FILLER_41_55
*1190 FILLER_41_57
*1191 FILLER_41_69
*1192 FILLER_41_81
*1193 FILLER_41_93
*1194 FILLER_42_109
*1195 FILLER_42_121
*1196 FILLER_42_133
*1197 FILLER_42_139
*1198 FILLER_42_141
*1199 FILLER_42_153
*1200 FILLER_42_165
*1201 FILLER_42_177
*1202 FILLER_42_189
*1203 FILLER_42_195
*1204 FILLER_42_197
*1205 FILLER_42_20
*1206 FILLER_42_209
*1207 FILLER_42_221
*1208 FILLER_42_233
*1209 FILLER_42_245
*1210 FILLER_42_251
*1211 FILLER_42_253
*1212 FILLER_42_265
*1213 FILLER_42_277
*1214 FILLER_42_289
*1215 FILLER_42_29
*1216 FILLER_42_297
*1217 FILLER_42_3
*1218 FILLER_42_41
*1219 FILLER_42_53
*1220 FILLER_42_65
*1221 FILLER_42_77
*1222 FILLER_42_8
*1223 FILLER_42_83
*1224 FILLER_42_85
*1225 FILLER_42_97
*1226 FILLER_43_105
*1227 FILLER_43_111
*1228 FILLER_43_113
*1229 FILLER_43_125
*1230 FILLER_43_137
*1231 FILLER_43_149
*1232 FILLER_43_15
*1233 FILLER_43_161
*1234 FILLER_43_167
*1235 FILLER_43_169
*1236 FILLER_43_181
*1237 FILLER_43_193
*1238 FILLER_43_205
*1239 FILLER_43_217
*1240 FILLER_43_223
*1241 FILLER_43_225
*1242 FILLER_43_237
*1243 FILLER_43_249
*1244 FILLER_43_261
*1245 FILLER_43_27
*1246 FILLER_43_273
*1247 FILLER_43_279
*1248 FILLER_43_281
*1249 FILLER_43_293
*1250 FILLER_43_3
*1251 FILLER_43_39
*1252 FILLER_43_51
*1253 FILLER_43_55
*1254 FILLER_43_57
*1255 FILLER_43_69
*1256 FILLER_43_81
*1257 FILLER_43_93
*1258 FILLER_44_109
*1259 FILLER_44_121
*1260 FILLER_44_133
*1261 FILLER_44_139
*1262 FILLER_44_141
*1263 FILLER_44_15
*1264 FILLER_44_153
*1265 FILLER_44_165
*1266 FILLER_44_177
*1267 FILLER_44_189
*1268 FILLER_44_195
*1269 FILLER_44_197
*1270 FILLER_44_209
*1271 FILLER_44_221
*1272 FILLER_44_233
*1273 FILLER_44_245
*1274 FILLER_44_251
*1275 FILLER_44_253
*1276 FILLER_44_265
*1277 FILLER_44_27
*1278 FILLER_44_277
*1279 FILLER_44_289
*1280 FILLER_44_29
*1281 FILLER_44_297
*1282 FILLER_44_3
*1283 FILLER_44_41
*1284 FILLER_44_53
*1285 FILLER_44_65
*1286 FILLER_44_77
*1287 FILLER_44_83
*1288 FILLER_44_85
*1289 FILLER_44_97
*1290 FILLER_45_105
*1291 FILLER_45_111
*1292 FILLER_45_113
*1293 FILLER_45_125
*1294 FILLER_45_137
*1295 FILLER_45_149
*1296 FILLER_45_15
*1297 FILLER_45_161
*1298 FILLER_45_167
*1299 FILLER_45_169
*1300 FILLER_45_181
*1301 FILLER_45_193
*1302 FILLER_45_205
*1303 FILLER_45_217
*1304 FILLER_45_223
*1305 FILLER_45_225
*1306 FILLER_45_237
*1307 FILLER_45_249
*1308 FILLER_45_261
*1309 FILLER_45_27
*1310 FILLER_45_273
*1311 FILLER_45_279
*1312 FILLER_45_281
*1313 FILLER_45_293
*1314 FILLER_45_3
*1315 FILLER_45_39
*1316 FILLER_45_51
*1317 FILLER_45_55
*1318 FILLER_45_57
*1319 FILLER_45_69
*1320 FILLER_45_81
*1321 FILLER_45_93
*1322 FILLER_46_109
*1323 FILLER_46_121
*1324 FILLER_46_133
*1325 FILLER_46_139
*1326 FILLER_46_141
*1327 FILLER_46_153
*1328 FILLER_46_165
*1329 FILLER_46_177
*1330 FILLER_46_189
*1331 FILLER_46_195
*1332 FILLER_46_197
*1333 FILLER_46_20
*1334 FILLER_46_209
*1335 FILLER_46_221
*1336 FILLER_46_233
*1337 FILLER_46_245
*1338 FILLER_46_251
*1339 FILLER_46_253
*1340 FILLER_46_265
*1341 FILLER_46_277
*1342 FILLER_46_289
*1343 FILLER_46_29
*1344 FILLER_46_297
*1345 FILLER_46_3
*1346 FILLER_46_41
*1347 FILLER_46_53
*1348 FILLER_46_65
*1349 FILLER_46_77
*1350 FILLER_46_8
*1351 FILLER_46_83
*1352 FILLER_46_85
*1353 FILLER_46_97
*1354 FILLER_47_105
*1355 FILLER_47_111
*1356 FILLER_47_113
*1357 FILLER_47_125
*1358 FILLER_47_137
*1359 FILLER_47_149
*1360 FILLER_47_15
*1361 FILLER_47_161
*1362 FILLER_47_167
*1363 FILLER_47_169
*1364 FILLER_47_181
*1365 FILLER_47_193
*1366 FILLER_47_205
*1367 FILLER_47_217
*1368 FILLER_47_223
*1369 FILLER_47_225
*1370 FILLER_47_237
*1371 FILLER_47_249
*1372 FILLER_47_261
*1373 FILLER_47_27
*1374 FILLER_47_273
*1375 FILLER_47_279
*1376 FILLER_47_281
*1377 FILLER_47_293
*1378 FILLER_47_3
*1379 FILLER_47_39
*1380 FILLER_47_51
*1381 FILLER_47_55
*1382 FILLER_47_57
*1383 FILLER_47_69
*1384 FILLER_47_81
*1385 FILLER_47_93
*1386 FILLER_48_109
*1387 FILLER_48_121
*1388 FILLER_48_133
*1389 FILLER_48_139
*1390 FILLER_48_141
*1391 FILLER_48_15
*1392 FILLER_48_153
*1393 FILLER_48_165
*1394 FILLER_48_177
*1395 FILLER_48_189
*1396 FILLER_48_195
*1397 FILLER_48_197
*1398 FILLER_48_209
*1399 FILLER_48_221
*1400 FILLER_48_233
*1401 FILLER_48_245
*1402 FILLER_48_251
*1403 FILLER_48_253
*1404 FILLER_48_265
*1405 FILLER_48_27
*1406 FILLER_48_277
*1407 FILLER_48_289
*1408 FILLER_48_29
*1409 FILLER_48_297
*1410 FILLER_48_3
*1411 FILLER_48_41
*1412 FILLER_48_53
*1413 FILLER_48_65
*1414 FILLER_48_77
*1415 FILLER_48_83
*1416 FILLER_48_85
*1417 FILLER_48_97
*1418 FILLER_49_105
*1419 FILLER_49_111
*1420 FILLER_49_113
*1421 FILLER_49_125
*1422 FILLER_49_137
*1423 FILLER_49_149
*1424 FILLER_49_15
*1425 FILLER_49_161
*1426 FILLER_49_167
*1427 FILLER_49_169
*1428 FILLER_49_181
*1429 FILLER_49_193
*1430 FILLER_49_205
*1431 FILLER_49_217
*1432 FILLER_49_223
*1433 FILLER_49_225
*1434 FILLER_49_237
*1435 FILLER_49_249
*1436 FILLER_49_261
*1437 FILLER_49_27
*1438 FILLER_49_273
*1439 FILLER_49_279
*1440 FILLER_49_281
*1441 FILLER_49_293
*1442 FILLER_49_3
*1443 FILLER_49_39
*1444 FILLER_49_51
*1445 FILLER_49_55
*1446 FILLER_49_57
*1447 FILLER_49_69
*1448 FILLER_49_81
*1449 FILLER_49_93
*1450 FILLER_4_109
*1451 FILLER_4_121
*1452 FILLER_4_133
*1453 FILLER_4_139
*1454 FILLER_4_141
*1455 FILLER_4_153
*1456 FILLER_4_165
*1457 FILLER_4_177
*1458 FILLER_4_189
*1459 FILLER_4_195
*1460 FILLER_4_197
*1461 FILLER_4_209
*1462 FILLER_4_221
*1463 FILLER_4_233
*1464 FILLER_4_245
*1465 FILLER_4_25
*1466 FILLER_4_251
*1467 FILLER_4_253
*1468 FILLER_4_265
*1469 FILLER_4_277
*1470 FILLER_4_289
*1471 FILLER_4_29
*1472 FILLER_4_297
*1473 FILLER_4_3
*1474 FILLER_4_41
*1475 FILLER_4_53
*1476 FILLER_4_65
*1477 FILLER_4_77
*1478 FILLER_4_83
*1479 FILLER_4_85
*1480 FILLER_4_97
*1481 FILLER_50_109
*1482 FILLER_50_121
*1483 FILLER_50_133
*1484 FILLER_50_139
*1485 FILLER_50_141
*1486 FILLER_50_153
*1487 FILLER_50_165
*1488 FILLER_50_177
*1489 FILLER_50_189
*1490 FILLER_50_195
*1491 FILLER_50_197
*1492 FILLER_50_20
*1493 FILLER_50_209
*1494 FILLER_50_221
*1495 FILLER_50_233
*1496 FILLER_50_245
*1497 FILLER_50_251
*1498 FILLER_50_253
*1499 FILLER_50_265
*1500 FILLER_50_277
*1501 FILLER_50_289
*1502 FILLER_50_29
*1503 FILLER_50_297
*1504 FILLER_50_3
*1505 FILLER_50_41
*1506 FILLER_50_53
*1507 FILLER_50_65
*1508 FILLER_50_77
*1509 FILLER_50_8
*1510 FILLER_50_83
*1511 FILLER_50_85
*1512 FILLER_50_97
*1513 FILLER_51_105
*1514 FILLER_51_111
*1515 FILLER_51_113
*1516 FILLER_51_125
*1517 FILLER_51_137
*1518 FILLER_51_149
*1519 FILLER_51_15
*1520 FILLER_51_161
*1521 FILLER_51_167
*1522 FILLER_51_169
*1523 FILLER_51_181
*1524 FILLER_51_193
*1525 FILLER_51_205
*1526 FILLER_51_217
*1527 FILLER_51_223
*1528 FILLER_51_225
*1529 FILLER_51_237
*1530 FILLER_51_249
*1531 FILLER_51_261
*1532 FILLER_51_27
*1533 FILLER_51_273
*1534 FILLER_51_279
*1535 FILLER_51_281
*1536 FILLER_51_293
*1537 FILLER_51_3
*1538 FILLER_51_39
*1539 FILLER_51_51
*1540 FILLER_51_55
*1541 FILLER_51_57
*1542 FILLER_51_69
*1543 FILLER_51_81
*1544 FILLER_51_93
*1545 FILLER_52_109
*1546 FILLER_52_121
*1547 FILLER_52_133
*1548 FILLER_52_139
*1549 FILLER_52_141
*1550 FILLER_52_15
*1551 FILLER_52_153
*1552 FILLER_52_165
*1553 FILLER_52_177
*1554 FILLER_52_189
*1555 FILLER_52_195
*1556 FILLER_52_197
*1557 FILLER_52_209
*1558 FILLER_52_221
*1559 FILLER_52_233
*1560 FILLER_52_245
*1561 FILLER_52_251
*1562 FILLER_52_253
*1563 FILLER_52_265
*1564 FILLER_52_27
*1565 FILLER_52_277
*1566 FILLER_52_289
*1567 FILLER_52_29
*1568 FILLER_52_297
*1569 FILLER_52_3
*1570 FILLER_52_41
*1571 FILLER_52_53
*1572 FILLER_52_65
*1573 FILLER_52_77
*1574 FILLER_52_83
*1575 FILLER_52_85
*1576 FILLER_52_97
*1577 FILLER_53_105
*1578 FILLER_53_111
*1579 FILLER_53_113
*1580 FILLER_53_125
*1581 FILLER_53_137
*1582 FILLER_53_149
*1583 FILLER_53_15