*SPEF "ieee 1481-1999"
*DESIGN "azdle_binary_clock"
*DATE "11:11:11 Fri 11 11, 1111"
*VENDOR "OpenRCX"
*PROGRAM "Parallel Extraction"
*VERSION "1.0"
*DESIGN_FLOW "NAME_SCOPE LOCAL" "PIN_CAP NONE"
*DIVIDER /
*DELIMITER :
*BUS_DELIMITER []
*T_UNIT 1 NS
*C_UNIT 1 PF
*R_UNIT 1 OHM
*L_UNIT 1 HENRY

*NAME_MAP
*1 io_in[0]
*2 io_in[1]
*3 io_in[2]
*4 io_in[3]
*5 io_in[4]
*6 io_in[5]
*7 io_in[6]
*8 io_in[7]
*9 io_out[0]
*10 io_out[1]
*11 io_out[2]
*12 io_out[3]
*13 io_out[4]
*14 io_out[5]
*15 io_out[6]
*16 net8
*19 _000_
*20 _001_
*21 _002_
*22 _003_
*23 _004_
*24 _005_
*25 _006_
*26 _007_
*27 _008_
*28 _009_
*29 _010_
*30 _011_
*31 _012_
*32 _013_
*33 _014_
*34 _015_
*35 _016_
*36 _017_
*37 _018_
*38 _019_
*39 _020_
*40 _021_
*41 _022_
*42 _023_
*43 _024_
*44 _025_
*45 _026_
*46 _027_
*47 _028_
*48 _029_
*49 _030_
*50 _031_
*51 _032_
*52 _033_
*53 _034_
*54 _035_
*55 _036_
*56 _037_
*57 _038_
*58 _039_
*59 _040_
*60 _041_
*61 _042_
*62 _043_
*63 _044_
*64 _045_
*65 _046_
*66 _047_
*67 _048_
*68 _049_
*69 _050_
*70 _051_
*71 _052_
*72 _053_
*73 _054_
*74 _055_
*75 _056_
*76 _057_
*77 _058_
*78 _059_
*79 _060_
*80 _061_
*81 _062_
*82 _063_
*83 _064_
*84 _065_
*85 _066_
*86 _067_
*87 _068_
*88 _069_
*89 _070_
*90 _071_
*91 _072_
*92 _073_
*93 _074_
*94 _075_
*95 _076_
*96 _077_
*97 _078_
*98 _079_
*99 _080_
*100 _081_
*101 _082_
*102 _083_
*103 _084_
*104 _085_
*105 _086_
*106 _087_
*107 _088_
*108 _089_
*109 _090_
*110 _091_
*111 _092_
*112 _093_
*113 _094_
*114 _095_
*115 _096_
*116 _097_
*117 _098_
*118 _099_
*119 _100_
*120 _101_
*121 _102_
*122 _103_
*123 _104_
*124 _105_
*125 _106_
*126 _107_
*127 _108_
*128 _109_
*129 _110_
*130 _111_
*131 _112_
*132 _113_
*133 _114_
*134 _115_
*135 _116_
*136 _117_
*137 _118_
*138 _119_
*139 _120_
*140 _121_
*141 _122_
*142 _123_
*143 _124_
*144 _125_
*145 _126_
*146 _127_
*147 _128_
*148 _129_
*149 _130_
*150 _131_
*151 _132_
*152 _133_
*153 _134_
*154 _135_
*155 c\.cd\.hclk
*156 c\.centiseconds\[0\]
*157 c\.centiseconds\[1\]
*158 c\.centiseconds\[2\]
*159 c\.centiseconds\[3\]
*160 c\.centiseconds\[4\]
*161 c\.centiseconds\[5\]
*162 c\.centiseconds\[6\]
*163 c\.h_cnt\.cnt\[0\]
*164 c\.h_cnt\.cnt\[1\]
*165 c\.h_cnt\.cnt\[2\]
*166 c\.h_cnt\.cnt\[3\]
*167 c\.h_cnt\.cnt\[4\]
*168 c\.h_cnt\.newtick
*169 c\.h_cnt\.tick
*170 c\.m_cnt\.cnt\[0\]
*171 c\.m_cnt\.cnt\[1\]
*172 c\.m_cnt\.cnt\[2\]
*173 c\.m_cnt\.cnt\[3\]
*174 c\.m_cnt\.cnt\[4\]
*175 c\.m_cnt\.cnt\[5\]
*176 c\.m_cnt\.newtick
*177 c\.m_cnt\.tick
*178 c\.ms_cnt\.newtick
*179 c\.ms_cnt\.roll
*180 c\.pps_latch
*181 c\.s_cnt\.cnt\[0\]
*182 c\.s_cnt\.cnt\[1\]
*183 c\.s_cnt\.cnt\[2\]
*184 c\.s_cnt\.cnt\[3\]
*185 c\.s_cnt\.cnt\[4\]
*186 c\.s_cnt\.cnt\[5\]
*187 c\.s_cnt\.newtick
*188 clknet_0_io_in[0]
*189 clknet_2_0__leaf_io_in[0]
*190 clknet_2_1__leaf_io_in[0]
*191 clknet_2_2__leaf_io_in[0]
*192 clknet_2_3__leaf_io_in[0]
*193 disp\.pins\[4\]
*194 disp\.pins\[5\]
*195 disp\.pins\[6\]
*196 net1
*197 net2
*198 net3
*199 net4
*200 net5
*201 net6
*202 net7
*203 FILLER_0_109
*204 FILLER_0_113
*205 FILLER_0_125
*206 FILLER_0_137
*207 FILLER_0_141
*208 FILLER_0_15
*209 FILLER_0_153
*210 FILLER_0_165
*211 FILLER_0_169
*212 FILLER_0_181
*213 FILLER_0_193
*214 FILLER_0_197
*215 FILLER_0_209
*216 FILLER_0_221
*217 FILLER_0_225
*218 FILLER_0_237
*219 FILLER_0_249
*220 FILLER_0_253
*221 FILLER_0_265
*222 FILLER_0_27
*223 FILLER_0_277
*224 FILLER_0_281
*225 FILLER_0_29
*226 FILLER_0_293
*227 FILLER_0_3
*228 FILLER_0_41
*229 FILLER_0_53
*230 FILLER_0_57
*231 FILLER_0_69
*232 FILLER_0_81
*233 FILLER_0_85
*234 FILLER_0_97
*235 FILLER_10_109
*236 FILLER_10_121
*237 FILLER_10_133
*238 FILLER_10_139
*239 FILLER_10_141
*240 FILLER_10_153
*241 FILLER_10_165
*242 FILLER_10_177
*243 FILLER_10_189
*244 FILLER_10_195
*245 FILLER_10_197
*246 FILLER_10_209
*247 FILLER_10_21
*248 FILLER_10_221
*249 FILLER_10_233
*250 FILLER_10_245
*251 FILLER_10_251
*252 FILLER_10_253
*253 FILLER_10_265
*254 FILLER_10_27
*255 FILLER_10_277
*256 FILLER_10_289
*257 FILLER_10_29
*258 FILLER_10_297
*259 FILLER_10_3
*260 FILLER_10_38
*261 FILLER_10_45
*262 FILLER_10_57
*263 FILLER_10_71
*264 FILLER_10_78
*265 FILLER_10_85
*266 FILLER_10_97
*267 FILLER_11_106
*268 FILLER_11_113
*269 FILLER_11_12
*270 FILLER_11_125
*271 FILLER_11_137
*272 FILLER_11_149
*273 FILLER_11_161
*274 FILLER_11_167
*275 FILLER_11_169
*276 FILLER_11_181
*277 FILLER_11_193
*278 FILLER_11_205
*279 FILLER_11_217
*280 FILLER_11_223
*281 FILLER_11_225
*282 FILLER_11_237
*283 FILLER_11_249
*284 FILLER_11_261
*285 FILLER_11_273
*286 FILLER_11_279
*287 FILLER_11_281
*288 FILLER_11_293
*289 FILLER_11_3
*290 FILLER_11_36
*291 FILLER_11_48
*292 FILLER_11_57
*293 FILLER_11_62
*294 FILLER_11_82
*295 FILLER_11_94
*296 FILLER_12_109
*297 FILLER_12_121
*298 FILLER_12_133
*299 FILLER_12_139
*300 FILLER_12_141
*301 FILLER_12_153
*302 FILLER_12_165
*303 FILLER_12_177
*304 FILLER_12_189
*305 FILLER_12_195
*306 FILLER_12_197
*307 FILLER_12_209
*308 FILLER_12_22
*309 FILLER_12_221
*310 FILLER_12_233
*311 FILLER_12_245
*312 FILLER_12_251
*313 FILLER_12_253
*314 FILLER_12_265
*315 FILLER_12_277
*316 FILLER_12_289
*317 FILLER_12_29
*318 FILLER_12_297
*319 FILLER_12_3
*320 FILLER_12_36
*321 FILLER_12_44
*322 FILLER_12_65
*323 FILLER_12_74
*324 FILLER_12_82
*325 FILLER_12_85
*326 FILLER_12_97
*327 FILLER_13_108
*328 FILLER_13_113
*329 FILLER_13_125
*330 FILLER_13_137
*331 FILLER_13_14
*332 FILLER_13_149
*333 FILLER_13_161
*334 FILLER_13_167
*335 FILLER_13_169
*336 FILLER_13_181
*337 FILLER_13_193
*338 FILLER_13_20
*339 FILLER_13_205
*340 FILLER_13_217
*341 FILLER_13_223
*342 FILLER_13_225
*343 FILLER_13_237
*344 FILLER_13_249
*345 FILLER_13_26
*346 FILLER_13_261
*347 FILLER_13_273
*348 FILLER_13_279
*349 FILLER_13_281
*350 FILLER_13_293
*351 FILLER_13_3
*352 FILLER_13_34
*353 FILLER_13_54
*354 FILLER_13_57
*355 FILLER_13_70
*356 FILLER_13_77
*357 FILLER_13_8
*358 FILLER_13_84
*359 FILLER_13_96
*360 FILLER_14_109
*361 FILLER_14_121
*362 FILLER_14_133
*363 FILLER_14_139
*364 FILLER_14_141
*365 FILLER_14_153
*366 FILLER_14_165
*367 FILLER_14_17
*368 FILLER_14_177
*369 FILLER_14_189
*370 FILLER_14_195
*371 FILLER_14_197
*372 FILLER_14_209
*373 FILLER_14_221
*374 FILLER_14_233
*375 FILLER_14_245
*376 FILLER_14_251
*377 FILLER_14_253
*378 FILLER_14_26
*379 FILLER_14_265
*380 FILLER_14_277
*381 FILLER_14_289
*382 FILLER_14_29
*383 FILLER_14_297
*384 FILLER_14_3
*385 FILLER_14_41
*386 FILLER_14_65
*387 FILLER_14_72
*388 FILLER_14_79
*389 FILLER_14_83
*390 FILLER_14_85
*391 FILLER_14_97
*392 FILLER_15_107
*393 FILLER_15_111
*394 FILLER_15_113
*395 FILLER_15_125
*396 FILLER_15_137
*397 FILLER_15_149
*398 FILLER_15_161
*399 FILLER_15_167
*400 FILLER_15_169
*401 FILLER_15_17
*402 FILLER_15_181
*403 FILLER_15_193
*404 FILLER_15_205
*405 FILLER_15_217
*406 FILLER_15_223
*407 FILLER_15_225
*408 FILLER_15_237
*409 FILLER_15_249
*410 FILLER_15_261
*411 FILLER_15_273
*412 FILLER_15_279
*413 FILLER_15_281
*414 FILLER_15_293
*415 FILLER_15_3
*416 FILLER_15_32
*417 FILLER_15_42
*418 FILLER_15_54
*419 FILLER_15_57
*420 FILLER_15_63
*421 FILLER_15_71
*422 FILLER_15_83
*423 FILLER_15_95
*424 FILLER_16_103
*425 FILLER_16_115
*426 FILLER_16_127
*427 FILLER_16_139
*428 FILLER_16_141
*429 FILLER_16_153
*430 FILLER_16_165
*431 FILLER_16_177
*432 FILLER_16_189
*433 FILLER_16_195
*434 FILLER_16_197
*435 FILLER_16_209
*436 FILLER_16_21
*437 FILLER_16_221
*438 FILLER_16_233
*439 FILLER_16_245
*440 FILLER_16_251
*441 FILLER_16_253
*442 FILLER_16_265
*443 FILLER_16_27
*444 FILLER_16_277
*445 FILLER_16_289
*446 FILLER_16_29
*447 FILLER_16_297
*448 FILLER_16_3
*449 FILLER_16_39
*450 FILLER_16_49
*451 FILLER_16_53
*452 FILLER_16_62
*453 FILLER_16_82
*454 FILLER_16_85
*455 FILLER_16_91
*456 FILLER_17_100
*457 FILLER_17_113
*458 FILLER_17_125
*459 FILLER_17_137
*460 FILLER_17_149
*461 FILLER_17_161
*462 FILLER_17_167
*463 FILLER_17_169
*464 FILLER_17_181
*465 FILLER_17_193
*466 FILLER_17_20
*467 FILLER_17_205
*468 FILLER_17_217
*469 FILLER_17_223
*470 FILLER_17_225
*471 FILLER_17_237
*472 FILLER_17_24
*473 FILLER_17_249
*474 FILLER_17_261
*475 FILLER_17_273
*476 FILLER_17_279
*477 FILLER_17_281
*478 FILLER_17_293
*479 FILLER_17_3
*480 FILLER_17_30
*481 FILLER_17_38
*482 FILLER_17_49
*483 FILLER_17_55
*484 FILLER_17_57
*485 FILLER_17_62
*486 FILLER_17_71
*487 FILLER_17_80
*488 FILLER_17_88
*489 FILLER_17_9
*490 FILLER_18_102
*491 FILLER_18_114
*492 FILLER_18_12
*493 FILLER_18_126
*494 FILLER_18_138
*495 FILLER_18_141
*496 FILLER_18_153
*497 FILLER_18_165
*498 FILLER_18_177
*499 FILLER_18_189
*500 FILLER_18_195
*501 FILLER_18_197
*502 FILLER_18_209
*503 FILLER_18_22
*504 FILLER_18_221
*505 FILLER_18_233
*506 FILLER_18_245
*507 FILLER_18_251
*508 FILLER_18_253
*509 FILLER_18_265
*510 FILLER_18_277
*511 FILLER_18_289
*512 FILLER_18_29
*513 FILLER_18_297
*514 FILLER_18_3
*515 FILLER_18_34
*516 FILLER_18_38
*517 FILLER_18_55
*518 FILLER_18_67
*519 FILLER_18_7
*520 FILLER_18_76
*521 FILLER_18_85
*522 FILLER_18_90
*523 FILLER_19_101
*524 FILLER_19_109
*525 FILLER_19_113
*526 FILLER_19_12
*527 FILLER_19_125
*528 FILLER_19_137
*529 FILLER_19_149
*530 FILLER_19_161
*531 FILLER_19_167
*532 FILLER_19_169
*533 FILLER_19_181
*534 FILLER_19_193
*535 FILLER_19_20
*536 FILLER_19_205
*537 FILLER_19_217
*538 FILLER_19_223
*539 FILLER_19_225
*540 FILLER_19_237
*541 FILLER_19_249
*542 FILLER_19_261
*543 FILLER_19_27
*544 FILLER_19_273
*545 FILLER_19_279
*546 FILLER_19_281
*547 FILLER_19_293
*548 FILLER_19_3
*549 FILLER_19_47
*550 FILLER_19_54
*551 FILLER_19_57
*552 FILLER_19_62
*553 FILLER_19_82
*554 FILLER_19_89
*555 FILLER_1_105
*556 FILLER_1_111
*557 FILLER_1_113
*558 FILLER_1_125
*559 FILLER_1_137
*560 FILLER_1_149
*561 FILLER_1_15
*562 FILLER_1_161
*563 FILLER_1_167
*564 FILLER_1_169
*565 FILLER_1_181
*566 FILLER_1_193
*567 FILLER_1_205
*568 FILLER_1_217
*569 FILLER_1_223
*570 FILLER_1_225
*571 FILLER_1_237
*572 FILLER_1_249
*573 FILLER_1_261
*574 FILLER_1_27
*575 FILLER_1_273
*576 FILLER_1_279
*577 FILLER_1_281
*578 FILLER_1_293
*579 FILLER_1_3
*580 FILLER_1_39
*581 FILLER_1_51
*582 FILLER_1_55
*583 FILLER_1_57
*584 FILLER_1_69
*585 FILLER_1_81
*586 FILLER_1_93
*587 FILLER_20_109
*588 FILLER_20_121
*589 FILLER_20_133
*590 FILLER_20_139
*591 FILLER_20_141
*592 FILLER_20_153
*593 FILLER_20_165
*594 FILLER_20_177
*595 FILLER_20_189
*596 FILLER_20_195
*597 FILLER_20_197
*598 FILLER_20_209
*599 FILLER_20_21
*600 FILLER_20_221
*601 FILLER_20_233
*602 FILLER_20_245
*603 FILLER_20_251
*604 FILLER_20_253
*605 FILLER_20_265
*606 FILLER_20_27
*607 FILLER_20_277
*608 FILLER_20_289
*609 FILLER_20_29
*610 FILLER_20_297
*611 FILLER_20_3
*612 FILLER_20_40
*613 FILLER_20_64
*614 FILLER_20_76
*615 FILLER_20_85
*616 FILLER_20_97
*617 FILLER_21_111
*618 FILLER_21_113
*619 FILLER_21_125
*620 FILLER_21_137
*621 FILLER_21_149
*622 FILLER_21_15
*623 FILLER_21_161
*624 FILLER_21_167
*625 FILLER_21_169
*626 FILLER_21_181
*627 FILLER_21_193
*628 FILLER_21_205
*629 FILLER_21_217
*630 FILLER_21_223
*631 FILLER_21_225
*632 FILLER_21_237
*633 FILLER_21_249
*634 FILLER_21_26
*635 FILLER_21_261
*636 FILLER_21_273
*637 FILLER_21_279
*638 FILLER_21_281
*639 FILLER_21_293
*640 FILLER_21_3
*641 FILLER_21_30
*642 FILLER_21_36
*643 FILLER_21_43
*644 FILLER_21_53
*645 FILLER_21_57
*646 FILLER_21_75
*647 FILLER_21_87
*648 FILLER_21_99
*649 FILLER_22_109
*650 FILLER_22_121
*651 FILLER_22_133
*652 FILLER_22_139
*653 FILLER_22_141
*654 FILLER_22_153
*655 FILLER_22_165
*656 FILLER_22_177
*657 FILLER_22_189
*658 FILLER_22_195
*659 FILLER_22_197
*660 FILLER_22_209
*661 FILLER_22_21
*662 FILLER_22_221
*663 FILLER_22_233
*664 FILLER_22_245
*665 FILLER_22_251
*666 FILLER_22_253
*667 FILLER_22_265
*668 FILLER_22_27
*669 FILLER_22_277
*670 FILLER_22_289
*671 FILLER_22_29
*672 FILLER_22_297
*673 FILLER_22_3
*674 FILLER_22_35
*675 FILLER_22_43
*676 FILLER_22_51
*677 FILLER_22_58
*678 FILLER_22_70
*679 FILLER_22_82
*680 FILLER_22_85
*681 FILLER_22_97
*682 FILLER_23_111
*683 FILLER_23_113
*684 FILLER_23_125
*685 FILLER_23_13
*686 FILLER_23_137
*687 FILLER_23_149
*688 FILLER_23_161
*689 FILLER_23_167
*690 FILLER_23_169
*691 FILLER_23_17
*692 FILLER_23_181
*693 FILLER_23_193
*694 FILLER_23_205
*695 FILLER_23_217
*696 FILLER_23_223
*697 FILLER_23_225
*698 FILLER_23_237
*699 FILLER_23_249
*700 FILLER_23_261
*701 FILLER_23_273
*702 FILLER_23_279
*703 FILLER_23_281
*704 FILLER_23_293
*705 FILLER_23_3
*706 FILLER_23_34
*707 FILLER_23_54
*708 FILLER_23_57
*709 FILLER_23_75
*710 FILLER_23_87
*711 FILLER_23_99
*712 FILLER_24_109
*713 FILLER_24_121
*714 FILLER_24_133
*715 FILLER_24_139
*716 FILLER_24_141
*717 FILLER_24_153
*718 FILLER_24_165
*719 FILLER_24_177
*720 FILLER_24_189
*721 FILLER_24_19
*722 FILLER_24_195
*723 FILLER_24_197
*724 FILLER_24_209
*725 FILLER_24_221
*726 FILLER_24_233
*727 FILLER_24_245
*728 FILLER_24_251
*729 FILLER_24_253
*730 FILLER_24_26
*731 FILLER_24_265
*732 FILLER_24_277
*733 FILLER_24_289
*734 FILLER_24_29
*735 FILLER_24_297
*736 FILLER_24_3
*737 FILLER_24_34
*738 FILLER_24_44
*739 FILLER_24_64
*740 FILLER_24_71
*741 FILLER_24_83
*742 FILLER_24_85
*743 FILLER_24_9
*744 FILLER_24_97
*745 FILLER_25_100
*746 FILLER_25_113
*747 FILLER_25_125
*748 FILLER_25_137
*749 FILLER_25_149
*750 FILLER_25_16
*751 FILLER_25_161
*752 FILLER_25_167
*753 FILLER_25_169
*754 FILLER_25_181
*755 FILLER_25_193
*756 FILLER_25_205
*757 FILLER_25_217
*758 FILLER_25_223
*759 FILLER_25_225
*760 FILLER_25_237
*761 FILLER_25_249
*762 FILLER_25_26
*763 FILLER_25_261
*764 FILLER_25_273
*765 FILLER_25_279
*766 FILLER_25_281
*767 FILLER_25_293
*768 FILLER_25_3
*769 FILLER_25_34
*770 FILLER_25_52
*771 FILLER_25_57
*772 FILLER_25_64
*773 FILLER_25_76
*774 FILLER_25_88
*775 FILLER_25_9
*776 FILLER_26_10
*777 FILLER_26_109
*778 FILLER_26_121
*779 FILLER_26_133
*780 FILLER_26_139
*781 FILLER_26_141
*782 FILLER_26_153
*783 FILLER_26_165
*784 FILLER_26_177
*785 FILLER_26_189
*786 FILLER_26_195
*787 FILLER_26_197
*788 FILLER_26_209
*789 FILLER_26_22
*790 FILLER_26_221
*791 FILLER_26_233
*792 FILLER_26_245
*793 FILLER_26_251
*794 FILLER_26_253
*795 FILLER_26_265
*796 FILLER_26_277
*797 FILLER_26_289
*798 FILLER_26_29
*799 FILLER_26_297
*800 FILLER_26_3
*801 FILLER_26_38
*802 FILLER_26_44
*803 FILLER_26_65
*804 FILLER_26_77
*805 FILLER_26_83
*806 FILLER_26_85
*807 FILLER_26_97
*808 FILLER_27_102
*809 FILLER_27_110
*810 FILLER_27_113
*811 FILLER_27_125
*812 FILLER_27_137
*813 FILLER_27_149
*814 FILLER_27_161
*815 FILLER_27_167
*816 FILLER_27_169
*817 FILLER_27_181
*818 FILLER_27_193
*819 FILLER_27_205
*820 FILLER_27_217
*821 FILLER_27_223
*822 FILLER_27_225
*823 FILLER_27_237
*824 FILLER_27_249
*825 FILLER_27_261
*826 FILLER_27_273
*827 FILLER_27_279
*828 FILLER_27_281
*829 FILLER_27_293
*830 FILLER_27_3
*831 FILLER_27_36
*832 FILLER_27_46
*833 FILLER_27_54
*834 FILLER_27_57
*835 FILLER_27_66
*836 FILLER_27_78
*837 FILLER_27_8
*838 FILLER_27_90
*839 FILLER_28_109
*840 FILLER_28_121
*841 FILLER_28_133
*842 FILLER_28_139
*843 FILLER_28_141
*844 FILLER_28_153
*845 FILLER_28_165
*846 FILLER_28_177
*847 FILLER_28_189
*848 FILLER_28_195
*849 FILLER_28_197
*850 FILLER_28_209
*851 FILLER_28_21
*852 FILLER_28_221
*853 FILLER_28_233
*854 FILLER_28_245
*855 FILLER_28_251
*856 FILLER_28_253
*857 FILLER_28_265
*858 FILLER_28_27
*859 FILLER_28_277
*860 FILLER_28_289
*861 FILLER_28_29
*862 FILLER_28_297
*863 FILLER_28_3
*864 FILLER_28_37
*865 FILLER_28_41
*866 FILLER_28_47
*867 FILLER_28_55
*868 FILLER_28_60
*869 FILLER_28_72
*870 FILLER_28_85
*871 FILLER_28_97
*872 FILLER_29_111
*873 FILLER_29_113
*874 FILLER_29_125
*875 FILLER_29_137
*876 FILLER_29_149
*877 FILLER_29_161
*878 FILLER_29_167
*879 FILLER_29_169
*880 FILLER_29_181
*881 FILLER_29_193
*882 FILLER_29_205
*883 FILLER_29_217
*884 FILLER_29_223
*885 FILLER_29_225
*886 FILLER_29_23
*887 FILLER_29_237
*888 FILLER_29_249
*889 FILLER_29_261
*890 FILLER_29_273
*891 FILLER_29_279
*892 FILLER_29_281
*893 FILLER_29_293
*894 FILLER_29_3
*895 FILLER_29_45
*896 FILLER_29_49
*897 FILLER_29_54
*898 FILLER_29_57
*899 FILLER_29_75
*900 FILLER_29_87
*901 FILLER_29_9
*902 FILLER_29_99
*903 FILLER_2_109
*904 FILLER_2_121
*905 FILLER_2_133
*906 FILLER_2_139
*907 FILLER_2_141
*908 FILLER_2_15
*909 FILLER_2_153
*910 FILLER_2_165
*911 FILLER_2_177
*912 FILLER_2_189
*913 FILLER_2_195
*914 FILLER_2_197
*915 FILLER_2_209
*916 FILLER_2_221
*917 FILLER_2_233
*918 FILLER_2_245
*919 FILLER_2_251
*920 FILLER_2_253
*921 FILLER_2_265
*922 FILLER_2_27
*923 FILLER_2_277
*924 FILLER_2_289
*925 FILLER_2_29
*926 FILLER_2_297
*927 FILLER_2_3
*928 FILLER_2_41
*929 FILLER_2_53
*930 FILLER_2_65
*931 FILLER_2_77
*932 FILLER_2_83
*933 FILLER_2_85
*934 FILLER_2_97
*935 FILLER_30_109
*936 FILLER_30_11
*937 FILLER_30_121
*938 FILLER_30_133
*939 FILLER_30_139
*940 FILLER_30_141
*941 FILLER_30_153
*942 FILLER_30_165
*943 FILLER_30_177
*944 FILLER_30_189
*945 FILLER_30_195
*946 FILLER_30_197
*947 FILLER_30_209
*948 FILLER_30_22
*949 FILLER_30_221
*950 FILLER_30_233
*951 FILLER_30_245
*952 FILLER_30_251
*953 FILLER_30_253
*954 FILLER_30_265
*955 FILLER_30_277
*956 FILLER_30_289
*957 FILLER_30_29
*958 FILLER_30_297
*959 FILLER_30_3
*960 FILLER_30_35
*961 FILLER_30_47
*962 FILLER_30_56
*963 FILLER_30_69
*964 FILLER_30_81
*965 FILLER_30_85
*966 FILLER_30_97
*967 FILLER_31_105
*968 FILLER_31_111
*969 FILLER_31_113
*970 FILLER_31_125
*971 FILLER_31_13
*972 FILLER_31_137
*973 FILLER_31_149
*974 FILLER_31_161
*975 FILLER_31_167
*976 FILLER_31_169
*977 FILLER_31_17
*978 FILLER_31_181
*979 FILLER_31_193
*980 FILLER_31_205
*981 FILLER_31_217
*982 FILLER_31_223
*983 FILLER_31_225
*984 FILLER_31_237
*985 FILLER_31_249
*986 FILLER_31_26
*987 FILLER_31_261
*988 FILLER_31_273
*989 FILLER_31_279
*990 FILLER_31_281
*991 FILLER_31_293
*992 FILLER_31_3
*993 FILLER_31_32
*994 FILLER_31_37
*995 FILLER_31_41
*996 FILLER_31_52
*997 FILLER_31_57
*998 FILLER_31_61
*999 FILLER_31_69
*1000 FILLER_31_81
*1001 FILLER_31_93
*1002 FILLER_32_10
*1003 FILLER_32_109
*1004 FILLER_32_121
*1005 FILLER_32_133
*1006 FILLER_32_139
*1007 FILLER_32_141
*1008 FILLER_32_153
*1009 FILLER_32_165
*1010 FILLER_32_177
*1011 FILLER_32_189
*1012 FILLER_32_195
*1013 FILLER_32_197
*1014 FILLER_32_209
*1015 FILLER_32_22
*1016 FILLER_32_221
*1017 FILLER_32_233
*1018 FILLER_32_245
*1019 FILLER_32_251
*1020 FILLER_32_253
*1021 FILLER_32_265
*1022 FILLER_32_277
*1023 FILLER_32_289
*1024 FILLER_32_29
*1025 FILLER_32_297
*1026 FILLER_32_3
*1027 FILLER_32_36
*1028 FILLER_32_45
*1029 FILLER_32_56
*1030 FILLER_32_70
*1031 FILLER_32_82
*1032 FILLER_32_85
*1033 FILLER_32_97
*1034 FILLER_33_102
*1035 FILLER_33_11
*1036 FILLER_33_110
*1037 FILLER_33_113
*1038 FILLER_33_125
*1039 FILLER_33_137
*1040 FILLER_33_149
*1041 FILLER_33_161
*1042 FILLER_33_167
*1043 FILLER_33_169
*1044 FILLER_33_181
*1045 FILLER_33_193
*1046 FILLER_33_20
*1047 FILLER_33_205
*1048 FILLER_33_217
*1049 FILLER_33_223
*1050 FILLER_33_225
*1051 FILLER_33_237
*1052 FILLER_33_249
*1053 FILLER_33_261
*1054 FILLER_33_273
*1055 FILLER_33_279
*1056 FILLER_33_281
*1057 FILLER_33_293
*1058 FILLER_33_3
*1059 FILLER_33_31
*1060 FILLER_33_40
*1061 FILLER_33_48
*1062 FILLER_33_57
*1063 FILLER_33_61
*1064 FILLER_33_78
*1065 FILLER_33_90
*1066 FILLER_34_109
*1067 FILLER_34_121
*1068 FILLER_34_13
*1069 FILLER_34_133
*1070 FILLER_34_139
*1071 FILLER_34_141
*1072 FILLER_34_153
*1073 FILLER_34_165
*1074 FILLER_34_17
*1075 FILLER_34_177
*1076 FILLER_34_189
*1077 FILLER_34_195
*1078 FILLER_34_197
*1079 FILLER_34_209
*1080 FILLER_34_221
*1081 FILLER_34_233
*1082 FILLER_34_245
*1083 FILLER_34_251
*1084 FILLER_34_253
*1085 FILLER_34_26
*1086 FILLER_34_265
*1087 FILLER_34_277
*1088 FILLER_34_289
*1089 FILLER_34_29
*1090 FILLER_34_297
*1091 FILLER_34_3
*1092 FILLER_34_37
*1093 FILLER_34_54
*1094 FILLER_34_62
*1095 FILLER_34_68
*1096 FILLER_34_76
*1097 FILLER_34_85
*1098 FILLER_34_97
*1099 FILLER_35_111
*1100 FILLER_35_113
*1101 FILLER_35_125
*1102 FILLER_35_137
*1103 FILLER_35_149
*1104 FILLER_35_161
*1105 FILLER_35_167
*1106 FILLER_35_169
*1107 FILLER_35_181
*1108 FILLER_35_193
*1109 FILLER_35_205
*1110 FILLER_35_21
*1111 FILLER_35_217
*1112 FILLER_35_223
*1113 FILLER_35_225
*1114 FILLER_35_237
*1115 FILLER_35_249
*1116 FILLER_35_261
*1117 FILLER_35_273
*1118 FILLER_35_279
*1119 FILLER_35_281
*1120 FILLER_35_293
*1121 FILLER_35_3
*1122 FILLER_35_30
*1123 FILLER_35_37
*1124 FILLER_35_49
*1125 FILLER_35_55
*1126 FILLER_35_57
*1127 FILLER_35_63
*1128 FILLER_35_75
*1129 FILLER_35_87
*1130 FILLER_35_99
*1131 FILLER_36_109
*1132 FILLER_36_121
*1133 FILLER_36_133
*1134 FILLER_36_139
*1135 FILLER_36_141
*1136 FILLER_36_153
*1137 FILLER_36_165
*1138 FILLER_36_177
*1139 FILLER_36_189
*1140 FILLER_36_195
*1141 FILLER_36_197
*1142 FILLER_36_209
*1143 FILLER_36_21
*1144 FILLER_36_221
*1145 FILLER_36_233
*1146 FILLER_36_245
*1147 FILLER_36_251
*1148 FILLER_36_253
*1149 FILLER_36_265
*1150 FILLER_36_27
*1151 FILLER_36_277
*1152 FILLER_36_289
*1153 FILLER_36_29
*1154 FILLER_36_297
*1155 FILLER_36_3
*1156 FILLER_36_38
*1157 FILLER_36_45
*1158 FILLER_36_69
*1159 FILLER_36_81
*1160 FILLER_36_85
*1161 FILLER_36_97
*1162 FILLER_37_10
*1163 FILLER_37_105
*1164 FILLER_37_111
*1165 FILLER_37_113
*1166 FILLER_37_125
*1167 FILLER_37_137
*1168 FILLER_37_14
*1169 FILLER_37_149
*1170 FILLER_37_161
*1171 FILLER_37_167
*1172 FILLER_37_169
*1173 FILLER_37_181
*1174 FILLER_37_193
*1175 FILLER_37_205
*1176 FILLER_37_217
*1177 FILLER_37_223
*1178 FILLER_37_225
*1179 FILLER_37_237
*1180 FILLER_37_249
*1181 FILLER_37_261
*1182 FILLER_37_273
*1183 FILLER_37_279
*1184 FILLER_37_281
*1185 FILLER_37_293
*1186 FILLER_37_3
*1187 FILLER_37_31
*1188 FILLER_37_51
*1189 FILLER_37_55
*1190 FILLER_37_57
*1191 FILLER_37_69
*1192 FILLER_37_81
*1193 FILLER_37_93
*1194 FILLER_38_109
*1195 FILLER_38_121
*1196 FILLER_38_133
*1197 FILLER_38_139
*1198 FILLER_38_141
*1199 FILLER_38_153
*1200 FILLER_38_165
*1201 FILLER_38_177
*1202 FILLER_38_189
*1203 FILLER_38_195
*1204 FILLER_38_197
*1205 FILLER_38_209
*1206 FILLER_38_221
*1207 FILLER_38_233
*1208 FILLER_38_24
*1209 FILLER_38_245
*1210 FILLER_38_251
*1211 FILLER_38_253
*1212 FILLER_38_265
*1213 FILLER_38_277
*1214 FILLER_38_289
*1215 FILLER_38_29
*1216 FILLER_38_297
*1217 FILLER_38_3
*1218 FILLER_38_41
*1219 FILLER_38_53
*1220 FILLER_38_65
*1221 FILLER_38_77
*1222 FILLER_38_8
*1223 FILLER_38_83
*1224 FILLER_38_85
*1225 FILLER_38_97
*1226 FILLER_39_10
*1227 FILLER_39_105
*1228 FILLER_39_111
*1229 FILLER_39_113
*1230 FILLER_39_125
*1231 FILLER_39_137
*1232 FILLER_39_14
*1233 FILLER_39_149
*1234 FILLER_39_161
*1235 FILLER_39_167
*1236 FILLER_39_169
*1237 FILLER_39_181
*1238 FILLER_39_193
*1239 FILLER_39_205
*1240 FILLER_39_217
*1241 FILLER_39_223
*1242 FILLER_39_225
*1243 FILLER_39_23
*1244 FILLER_39_237
*1245 FILLER_39_249
*1246 FILLER_39_261
*1247 FILLER_39_273
*1248 FILLER_39_279
*1249 FILLER_39_281
*1250 FILLER_39_293
*1251 FILLER_39_3
*1252 FILLER_39_35
*1253 FILLER_39_47
*1254 FILLER_39_55
*1255 FILLER_39_57
*1256 FILLER_39_69
*1257 FILLER_39_81
*1258 FILLER_39_93
*1259 FILLER_3_111
*1260 FILLER_3_113
*1261 FILLER_3_125
*1262 FILLER_3_137
*1263 FILLER_3_149
*1264 FILLER_3_15
*1265 FILLER_3_161
*1266 FILLER_3_167
*1267 FILLER_3_169
*1268 FILLER_3_181
*1269 FILLER_3_193
*1270 FILLER_3_205
*1271 FILLER_3_217
*1272 FILLER_3_223
*1273 FILLER_3_225
*1274 FILLER_3_237
*1275 FILLER_3_249
*1276 FILLER_3_261
*1277 FILLER_3_27
*1278 FILLER_3_273
*1279 FILLER_3_279
*1280 FILLER_3_281
*1281 FILLER_3_293
*1282 FILLER_3_3
*1283 FILLER_3_39
*1284 FILLER_3_51
*1285 FILLER_3_55
*1286 FILLER_3_57
*1287 FILLER_3_63
*1288 FILLER_3_75
*1289 FILLER_3_8
*1290 FILLER_3_87
*1291 FILLER_3_99
*1292 FILLER_40_109
*1293 FILLER_40_11
*1294 FILLER_40_121
*1295 FILLER_40_133
*1296 FILLER_40_139
*1297 FILLER_40_141
*1298 FILLER_40_153
*1299 FILLER_40_165
*1300 FILLER_40_177
*1301 FILLER_40_189
*1302 FILLER_40_195
*1303 FILLER_40_197
*1304 FILLER_40_209
*1305 FILLER_40_21
*1306 FILLER_40_221
*1307 FILLER_40_233
*1308 FILLER_40_245
*1309 FILLER_40_251
*1310 FILLER_40_253
*1311 FILLER_40_265
*1312 FILLER_40_27
*1313 FILLER_40_277
*1314 FILLER_40_289
*1315 FILLER_40_29
*1316 FILLER_40_297
*1317 FILLER_40_3
*1318 FILLER_40_41
*1319 FILLER_40_53
*1320 FILLER_40_65
*1321 FILLER_40_77
*1322 FILLER_40_83
*1323 FILLER_40_85
*1324 FILLER_40_97
*1325 FILLER_41_105
*1326 FILLER_41_111
*1327 FILLER_41_113
*1328 FILLER_41_125
*1329 FILLER_41_137
*1330 FILLER_41_149
*1331 FILLER_41_15
*1332 FILLER_41_161
*1333 FILLER_41_167
*1334 FILLER_41_169
*1335 FILLER_41_181
*1336 FILLER_41_193
*1337 FILLER_41_205
*1338 FILLER_41_217
*1339 FILLER_41_223
*1340 FILLER_41_225
*1341 FILLER_41_237
*1342 FILLER_41_249
*1343 FILLER_41_261
*1344 FILLER_41_27
*1345 FILLER_41_273
*1346 FILLER_41_279
*1347 FILLER_41_281
*1348 FILLER_41_293
*1349 FILLER_41_3
*1350 FILLER_41_39
*1351 FILLER_41_51
*1352 FILLER_41_55
*1353 FILLER_41_57
*1354 FILLER_41_69
*1355 FILLER_41_81
*1356 FILLER_41_93
*1357 FILLER_42_109
*1358 FILLER_42_121
*1359 FILLER_42_133
*1360 FILLER_42_139
*1361 FILLER_42_141
*1362 FILLER_42_15
*1363 FILLER_42_153
*1364 FILLER_42_165
*1365 FILLER_42_177
*1366 FILLER_42_189
*1367 FILLER_42_195
*1368 FILLER_42_197
*1369 FILLER_42_209
*1370 FILLER_42_221
*1371 FILLER_42_233
*1372 FILLER_42_245
*1373 FILLER_42_251
*1374 FILLER_42_253
*1375 FILLER_42_265
*1376 FILLER_42_27
*1377 FILLER_42_277
*1378 FILLER_42_289
*1379 FILLER_42_29
*1380 FILLER_42_297
*1381 FILLER_42_3
*1382 FILLER_42_41
*1383 FILLER_42_53
*1384 FILLER_42_65
*1385 FILLER_42_77
*1386 FILLER_42_83
*1387 FILLER_42_85
*1388 FILLER_42_97
*1389 FILLER_43_105
*1390 FILLER_43_111
*1391 FILLER_43_113
*1392 FILLER_43_125
*1393 FILLER_43_137
*1394 FILLER_43_149
*1395 FILLER_43_15
*1396 FILLER_43_161
*1397 FILLER_43_167
*1398 FILLER_43_169
*1399 FILLER_43_181
*1400 FILLER_43_193
*1401 FILLER_43_205
*1402 FILLER_43_217
*1403 FILLER_43_223
*1404 FILLER_43_225
*1405 FILLER_43_237
*1406 FILLER_43_249
*1407 FILLER_43_261
*1408 FILLER_43_27
*1409 FILLER_43_273
*1410 FILLER_43_279
*1411 FILLER_43_281
*1412 FILLER_43_293
*1413 FILLER_43_3
*1414 FILLER_43_39
*1415 FILLER_43_51
*1416 FILLER_43_55
*1417 FILLER_43_57
*1418 FILLER_43_69
*1419 FILLER_43_81
*1420 FILLER_43_93
*1421 FILLER_44_10
*1422 FILLER_44_109
*1423 FILLER_44_121
*1424 FILLER_44_133
*1425 FILLER_44_139
*1426 FILLER_44_141
*1427 FILLER_44_153
*1428 FILLER_44_165
*1429 FILLER_44_177
*1430 FILLER_44_189
*1431 FILLER_44_195
*1432 FILLER_44_197
*1433 FILLER_44_209
*1434 FILLER_44_22
*1435 FILLER_44_221
*1436 FILLER_44_233
*1437 FILLER_44_245
*1438 FILLER_44_251
*1439 FILLER_44_253
*1440 FILLER_44_265
*1441 FILLER_44_277
*1442 FILLER_44_289
*1443 FILLER_44_29
*1444 FILLER_44_297
*1445 FILLER_44_3
*1446 FILLER_44_41
*1447 FILLER_44_53
*1448 FILLER_44_65
*1449 FILLER_44_77
*1450 FILLER_44_83
*1451 FILLER_44_85
*1452 FILLER_44_97
*1453 FILLER_45_105
*1454 FILLER_45_111
*1455 FILLER_45_113
*1456 FILLER_45_125
*1457 FILLER_45_137
*1458 FILLER_45_149
*1459 FILLER_45_161
*1460 FILLER_45_167
*1461 FILLER_45_169
*1462 FILLER_45_181
*1463 FILLER_45_193
*1464 FILLER_45_205
*1465 FILLER_45_21
*1466 FILLER_45_217
*1467 FILLER_45_223
*1468 FILLER_45_225
*1469 FILLER_45_237
*1470 FILLER_45_249
*1471 FILLER_45_261
*1472 FILLER_45_273
*1473 FILLER_45_279
*1474 FILLER_45_281
*1475 FILLER_45_293
*1476 FILLER_45_3
*1477 FILLER_45_33
*1478 FILLER_45_45
*1479 FILLER_45_53
*1480 FILLER_45_57
*1481 FILLER_45_69
*1482 FILLER_45_81
*1483 FILLER_45_9
*1484 FILLER_45_93
*1485 FILLER_46_10
*1486 FILLER_46_109
*1487 FILLER_46_121
*1488 FILLER_46_133
*1489 FILLER_46_139
*1490 FILLER_46_141
*1491 FILLER_46_153
*1492 FILLER_46_165
*1493 FILLER_46_177
*1494 FILLER_46_189
*1495 FILLER_46_195
*1496 FILLER_46_197
*1497 FILLER_46_209
*1498 FILLER_46_22
*1499 FILLER_46_221
*1500 FILLER_46_233
*1501 FILLER_46_245
*1502 FILLER_46_251
*1503 FILLER_46_253
*1504 FILLER_46_265
*1505 FILLER_46_277
*1506 FILLER_46_289
*1507 FILLER_46_29
*1508 FILLER_46_297
*1509 FILLER_46_3
*1510 FILLER_46_41
*1511 FILLER_46_53
*1512 FILLER_46_65
*1513 FILLER_46_77
*1514 FILLER_46_83
*1515 FILLER_46_85
*1516 FILLER_46_97
*1517 FILLER_47_10
*1518 FILLER_47_105
*1519 FILLER_47_111
*1520 FILLER_47_113
*1521 FILLER_47_125
*1522 FILLER_47_137
*1523 FILLER_47_149
*1524 FILLER_47_161
*1525 FILLER_47_167
*1526 FILLER_47_169
*1527 FILLER_47_181
*1528 FILLER_47_193
*1529 FILLER_47_205
*1530 FILLER_47_217
*1531 FILLER_47_22
*1532 FILLER_47_223
*1533 FILLER_47_225
*1534 FILLER_47_237
*1535 FILLER_47_249
*1536 FILLER_47_261
*1537 FILLER_47_273
*1538 FILLER_47_279
*1539 FILLER_47_281
*1540 FILLER_47_293
*1541 FILLER_47_3
*1542 FILLER_47_34
*1543 FILLER_47_46
*1544 FILLER_47_54
*1545 FILLER_47_57
*1546 FILLER_47_69
*1547 FILLER_47_81
*1548 FILLER_47_93
*1549 FILLER_48_109
*1550 FILLER_48_121
*1551 FILLER_48_133
*1552 FILLER_48_139
*1553 FILLER_48_141
*1554 FILLER_48_153
*1555 FILLER_48_165
*1556 FILLER_48_17
*1557 FILLER_48_177
*1558 FILLER_48_189
*1559 FILLER_48_195
*1560 FILLER_48_197
*1561 FILLER_48_209
*1562 FILLER_48_221
*1563 FILLER_48_233
*1564 FILLER_48_245
*1565 FILLER_48_25
*1566 FILLER_48_251
*1567 FILLER_48_253
*1568 FILLER_48_265
*1569 FILLER_48_277
*1570 FILLER_48_289
*1571 FILLER_48_29
*1572 FILLER_48_297
*1573 FILLER_48_3
*1574 FILLER_48_41
*1575 FILLER_48_53
*1576 FILLER_48_65
*1577 FILLER_48_77
*1578 FILLER_48_83
*1579 FILLER_48_85
*1580 FILLER_48_9
*1581 FILLER_48_97
*1582 FILLER_49_105
*1583 FILLER_49_111
*1584 FILLER_49_113
*1585 FILLER_49_125
*1586 FILLER_49_137
*1587 FILLER_49_149
*1588 FILLER_49_15
*1589 FILLER_49_161
*1590 FILLER_49_167
*1591 FILLER_49_169
*1592 FILLER_49_181
*1593 FILLER_49_193
*1594 FILLER_49_205
*1595 FILLER_49_217
*1596 FILLER_49_223
*1597 FILLER_49_225
*1598 FILLER_49_237
*1599 FILLER_49_249
*1600 FILLER_49_261
*1601 FILLER_49_27
*1602 FILLER_49_273
*1603 FILLER_49_279
*1604 FILLER_49_281
*1605 FILLER_49_293
*1606 FILLER_49_3
*1607 FILLER_49_39
*1608 FILLER_49_51
*1609 FILLER_49_55
*1610 FILLER_49_57
*1611 FILLER_49_69
*1612 FILLER_49_81
*1613 FILLER_49_93
*1614 FILLER_4_109
*1615 FILLER_4_121
*1616 FILLER_4_133
*1617 FILLER_4_139
*1618 FILLER_4_141
*1619 FILLER_4_153
*1620 FILLER_4_16
*1621 FILLER_4_165
*1622 FILLER_4_177
*1623 FILLER_4_189
*1624 FILLER_4_195
*1625 FILLER_4_197
*1626 FILLER_4_209