*SPEF "ieee 1481-1999"
*DESIGN "bat52_pwm_ddpm_top"
*DATE "11:11:11 Fri 11 11, 1111"
*VENDOR "OpenRCX"
*PROGRAM "Parallel Extraction"
*VERSION "1.0"
*DESIGN_FLOW "NAME_SCOPE LOCAL" "PIN_CAP NONE"
*DIVIDER /
*DELIMITER :
*BUS_DELIMITER []
*T_UNIT 1 NS
*C_UNIT 1 PF
*R_UNIT 1 OHM
*L_UNIT 1 HENRY

*NAME_MAP
*1 io_in[0]
*2 io_in[1]
*3 io_in[2]
*4 io_in[3]
*5 io_in[4]
*6 io_in[5]
*7 io_in[6]
*8 io_in[7]
*9 io_out[0]
*10 io_out[1]
*11 net12
*12 net13
*13 io_out[4]
*14 io_out[5]
*15 io_out[6]
*16 net14
*19 _000_
*20 _001_
*21 _002_
*22 _003_
*23 _004_
*24 _005_
*25 _006_
*26 _007_
*27 _008_
*28 _009_
*29 _010_
*30 _011_
*31 _012_
*32 _013_
*33 _014_
*34 _048_
*35 _049_
*36 _050_
*37 _051_
*38 _052_
*39 _053_
*40 _054_
*41 _055_
*42 _056_
*43 _057_
*44 _058_
*45 _059_
*46 _060_
*47 _061_
*48 _062_
*49 _063_
*50 _064_
*51 _065_
*52 _066_
*53 _067_
*54 _068_
*55 _069_
*56 _070_
*57 _071_
*58 _072_
*59 _073_
*60 _074_
*61 _075_
*62 _076_
*63 _077_
*64 _078_
*65 _079_
*66 _080_
*67 _081_
*68 _082_
*69 _083_
*70 _084_
*71 _085_
*72 _086_
*73 _087_
*74 _088_
*75 _089_
*76 _090_
*77 _091_
*78 _092_
*79 _093_
*80 _094_
*81 _095_
*82 _096_
*83 _097_
*84 _098_
*85 _099_
*86 _100_
*87 _101_
*88 _102_
*89 _103_
*90 _104_
*91 _105_
*92 _106_
*93 _107_
*94 _108_
*95 _109_
*96 _110_
*97 _111_
*98 _112_
*99 _113_
*100 _114_
*101 _115_
*102 _116_
*103 _117_
*104 _118_
*105 _119_
*106 _120_
*107 _121_
*108 _122_
*109 _123_
*110 _124_
*111 _125_
*112 _126_
*113 _127_
*114 _128_
*115 _129_
*116 _130_
*117 _131_
*118 _132_
*119 _133_
*120 _134_
*121 _135_
*122 _136_
*123 _137_
*124 _138_
*125 _139_
*126 _140_
*127 _141_
*128 _142_
*129 _143_
*130 _144_
*131 _145_
*132 _146_
*133 _147_
*134 _148_
*135 _149_
*136 _150_
*137 _151_
*138 _152_
*139 _153_
*140 _154_
*141 _155_
*142 _156_
*143 _157_
*144 _158_
*145 _159_
*146 _160_
*147 _161_
*148 _162_
*149 _163_
*150 _164_
*151 _165_
*152 _166_
*153 _167_
*154 _168_
*155 _169_
*156 _170_
*157 _171_
*158 _172_
*159 _173_
*160 _174_
*161 _175_
*162 _176_
*163 _177_
*164 _178_
*165 _179_
*166 _180_
*167 _181_
*168 _182_
*169 _183_
*170 _184_
*171 _185_
*172 _186_
*173 _187_
*174 _188_
*175 _189_
*176 _190_
*177 _191_
*178 _192_
*179 _193_
*180 _194_
*181 _195_
*182 _196_
*183 _197_
*184 _198_
*185 _199_
*186 _200_
*187 _201_
*188 _202_
*189 _203_
*190 _204_
*191 _205_
*192 _206_
*193 _207_
*194 _208_
*195 _209_
*196 _210_
*197 _211_
*198 _212_
*199 _213_
*200 _214_
*201 _215_
*202 _216_
*203 _217_
*204 _218_
*205 _219_
*206 _220_
*207 _221_
*208 _222_
*209 _223_
*210 _224_
*211 _225_
*212 _226_
*213 _227_
*214 _228_
*215 _229_
*216 _230_
*217 _231_
*218 _232_
*219 _233_
*220 _234_
*221 _235_
*222 _236_
*223 _237_
*224 _238_
*225 _239_
*226 _240_
*227 _241_
*228 _242_
*229 _243_
*230 _244_
*231 _245_
*232 _246_
*233 _247_
*234 _248_
*235 _249_
*236 _250_
*237 _251_
*238 _252_
*239 _253_
*240 _254_
*241 _255_
*242 _256_
*243 _257_
*244 _258_
*245 _259_
*246 _260_
*247 _261_
*248 _262_
*249 _263_
*250 _264_
*251 _265_
*252 _266_
*253 _267_
*254 _268_
*255 _269_
*256 _270_
*257 _271_
*258 _272_
*259 _273_
*260 _274_
*261 _275_
*262 _276_
*263 _277_
*264 _278_
*265 _279_
*266 _280_
*267 _281_
*268 _282_
*269 _283_
*270 _284_
*271 _285_
*272 _286_
*273 _287_
*274 _288_
*275 _289_
*276 _290_
*277 _291_
*278 _292_
*279 _293_
*280 _294_
*281 _295_
*282 _296_
*283 _297_
*284 _298_
*285 _299_
*286 _300_
*287 _301_
*288 _302_
*289 _303_
*290 _304_
*291 _305_
*292 _306_
*293 _307_
*294 _308_
*295 _309_
*296 _310_
*297 _311_
*298 _312_
*299 _313_
*300 _314_
*301 _315_
*302 _316_
*303 _317_
*304 _318_
*305 _319_
*306 _320_
*307 _321_
*308 _322_
*309 _323_
*310 _324_
*311 _325_
*312 _326_
*313 _327_
*314 _328_
*315 _329_
*316 _330_
*317 _331_
*318 _332_
*319 _333_
*320 _334_
*321 _335_
*322 _336_
*323 _337_
*324 _338_
*325 _339_
*326 _340_
*327 _341_
*328 _342_
*329 _343_
*330 _344_
*331 _345_
*332 _346_
*333 _347_
*334 _348_
*335 _349_
*336 _350_
*337 _351_
*338 _352_
*339 _353_
*340 _354_
*341 _355_
*342 _356_
*343 _357_
*344 _358_
*345 _359_
*346 _360_
*347 _361_
*348 _362_
*349 _363_
*350 _364_
*351 _365_
*352 _366_
*353 _367_
*354 _368_
*355 _369_
*356 _370_
*357 _371_
*358 _372_
*359 _373_
*360 _374_
*361 _375_
*362 _376_
*363 _377_
*364 _378_
*365 _379_
*366 _380_
*367 _381_
*368 _382_
*369 _383_
*370 _384_
*371 _385_
*372 _386_
*373 _387_
*374 _388_
*375 _389_
*376 _390_
*377 _391_
*378 _392_
*379 _393_
*380 _394_
*381 _395_
*382 _396_
*383 _397_
*384 _398_
*385 _399_
*386 _400_
*387 _401_
*388 _402_
*389 _403_
*390 _404_
*391 _405_
*392 _406_
*393 _407_
*394 _408_
*395 _409_
*396 _410_
*397 _411_
*398 _412_
*399 _413_
*400 _414_
*401 _415_
*402 _416_
*403 _417_
*404 _418_
*405 _419_
*406 _420_
*407 _421_
*408 _422_
*409 _423_
*410 _424_
*411 _425_
*412 _426_
*413 _427_
*414 _428_
*415 _429_
*416 _430_
*417 _431_
*418 _432_
*419 _433_
*420 _434_
*421 _435_
*422 _436_
*423 _437_
*424 _438_
*425 _439_
*426 _440_
*427 _441_
*428 _442_
*429 _443_
*430 clknet_0__441_
*431 clknet_0__442_
*432 clknet_0__443_
*433 clknet_0_io_in[0]
*434 clknet_1_0__leaf__441_
*435 clknet_1_0__leaf__442_
*436 clknet_1_0__leaf__443_
*437 clknet_1_0__leaf_io_in[0]
*438 clknet_1_1__leaf__441_
*439 clknet_1_1__leaf__442_
*440 clknet_1_1__leaf__443_
*441 clknet_1_1__leaf_io_in[0]
*442 count_out\[0\]
*443 count_out\[1\]
*444 count_out\[2\]
*445 count_out\[3\]
*446 count_out\[4\]
*447 count_out\[5\]
*448 counter_up0_count\[0\]
*449 counter_up0_count\[1\]
*450 counter_up0_count\[2\]
*451 counter_up0_count\[3\]
*452 counter_up0_count\[4\]
*453 counter_up0_count\[5\]
*454 counter_up0_count\[6\]
*455 counter_up0_count\[7\]
*456 counter_up0_count\[8\]
*457 counter_up0_count\[9\]
*458 ddpm
*459 ddpm_sine
*460 net1
*461 net10
*462 net11
*463 net15
*464 net16
*465 net17
*466 net18
*467 net19
*468 net2
*469 net20
*470 net21
*471 net22
*472 net23
*473 net24
*474 net25
*475 net26
*476 net27
*477 net28
*478 net29
*479 net3
*480 net30
*481 net31
*482 net32
*483 net33
*484 net34
*485 net35
*486 net36
*487 net37
*488 net38
*489 net39
*490 net4
*491 net40
*492 net41
*493 net42
*494 net43
*495 net44
*496 net45
*497 net46
*498 net47
*499 net48
*500 net5
*501 net6
*502 net7
*503 net8
*504 net9
*505 pwm
*506 pwm_ddpm1_count_out\[0\]
*507 pwm_ddpm1_count_out\[1\]
*508 pwm_ddpm1_count_out\[2\]
*509 pwm_ddpm1_count_out\[3\]
*510 pwm_ddpm1_count_out\[4\]
*511 pwm_ddpm1_count_out\[5\]
*512 pwm_ddpm1_count_out\[6\]
*513 pwm_ddpm1_count_out\[7\]
*514 pwm_ddpm1_sd1_mod0_delta\[0\]
*515 pwm_ddpm1_sd1_mod0_delta\[1\]
*516 pwm_ddpm1_sd1_mod0_delta\[2\]
*517 pwm_ddpm1_sd1_mod0_delta\[3\]
*518 pwm_ddpm1_sd1_mod0_delta\[4\]
*519 pwm_ddpm1_sd1_mod0_delta\[5\]
*520 pwm_ddpm1_sd1_mod0_delta\[6\]
*521 pwm_ddpm1_sd1_mod0_delta\[7\]
*522 pwm_ddpm1_sd1_mod0_qerr\[0\]
*523 pwm_ddpm1_sd1_mod0_qerr\[1\]
*524 pwm_ddpm1_sd1_mod0_qerr\[2\]
*525 pwm_ddpm1_sd1_mod0_qerr\[3\]
*526 pwm_ddpm1_sd1_mod0_qerr\[4\]
*527 pwm_ddpm1_sd1_mod0_qerr\[5\]
*528 pwm_ddpm1_sd1_mod0_qerr\[6\]
*529 pwm_ddpm1_sd1_mod0_qerr\[7\]
*530 pwm_sine
*531 sd_sine
*532 ANTENNA_1
*533 ANTENNA_2
*534 FILLER_0_107
*535 FILLER_0_111
*536 FILLER_0_113
*537 FILLER_0_125
*538 FILLER_0_137
*539 FILLER_0_141
*540 FILLER_0_153
*541 FILLER_0_165
*542 FILLER_0_169
*543 FILLER_0_181
*544 FILLER_0_193
*545 FILLER_0_197
*546 FILLER_0_209
*547 FILLER_0_221
*548 FILLER_0_225
*549 FILLER_0_237
*550 FILLER_0_249
*551 FILLER_0_253
*552 FILLER_0_26
*553 FILLER_0_265
*554 FILLER_0_277
*555 FILLER_0_281
*556 FILLER_0_29
*557 FILLER_0_293
*558 FILLER_0_3
*559 FILLER_0_51
*560 FILLER_0_55
*561 FILLER_0_57
*562 FILLER_0_79
*563 FILLER_0_83
*564 FILLER_0_85
*565 FILLER_10_109
*566 FILLER_10_115
*567 FILLER_10_138
*568 FILLER_10_141
*569 FILLER_10_149
*570 FILLER_10_161
*571 FILLER_10_173
*572 FILLER_10_185
*573 FILLER_10_193
*574 FILLER_10_197
*575 FILLER_10_203
*576 FILLER_10_212
*577 FILLER_10_224
*578 FILLER_10_236
*579 FILLER_10_248
*580 FILLER_10_253
*581 FILLER_10_26
*582 FILLER_10_265
*583 FILLER_10_277
*584 FILLER_10_289
*585 FILLER_10_29
*586 FILLER_10_297
*587 FILLER_10_3
*588 FILLER_10_55
*589 FILLER_10_82
*590 FILLER_10_85
*591 FILLER_11_103
*592 FILLER_11_110
*593 FILLER_11_113
*594 FILLER_11_125
*595 FILLER_11_133
*596 FILLER_11_156
*597 FILLER_11_169
*598 FILLER_11_181
*599 FILLER_11_193
*600 FILLER_11_205
*601 FILLER_11_222
*602 FILLER_11_225
*603 FILLER_11_237
*604 FILLER_11_249
*605 FILLER_11_257
*606 FILLER_11_269
*607 FILLER_11_277
*608 FILLER_11_281
*609 FILLER_11_293
*610 FILLER_11_3
*611 FILLER_11_33
*612 FILLER_11_45
*613 FILLER_11_54
*614 FILLER_11_57
*615 FILLER_11_8
*616 FILLER_11_82
*617 FILLER_11_88
*618 FILLER_11_96
*619 FILLER_12_103
*620 FILLER_12_115
*621 FILLER_12_121
*622 FILLER_12_138
*623 FILLER_12_141
*624 FILLER_12_153
*625 FILLER_12_165
*626 FILLER_12_177
*627 FILLER_12_189
*628 FILLER_12_195
*629 FILLER_12_197
*630 FILLER_12_204
*631 FILLER_12_216
*632 FILLER_12_228
*633 FILLER_12_240
*634 FILLER_12_253
*635 FILLER_12_26
*636 FILLER_12_265
*637 FILLER_12_277
*638 FILLER_12_289
*639 FILLER_12_29
*640 FILLER_12_297
*641 FILLER_12_3
*642 FILLER_12_55
*643 FILLER_12_79
*644 FILLER_12_83
*645 FILLER_12_85
*646 FILLER_12_89
*647 FILLER_12_95
*648 FILLER_13_100
*649 FILLER_13_113
*650 FILLER_13_125
*651 FILLER_13_136
*652 FILLER_13_148
*653 FILLER_13_160
*654 FILLER_13_169
*655 FILLER_13_181
*656 FILLER_13_193
*657 FILLER_13_205
*658 FILLER_13_217
*659 FILLER_13_223
*660 FILLER_13_225
*661 FILLER_13_237
*662 FILLER_13_249
*663 FILLER_13_261
*664 FILLER_13_273
*665 FILLER_13_279
*666 FILLER_13_281
*667 FILLER_13_293
*668 FILLER_13_3
*669 FILLER_13_32
*670 FILLER_13_46
*671 FILLER_13_50
*672 FILLER_13_54
*673 FILLER_13_57
*674 FILLER_13_82
*675 FILLER_13_88
*676 FILLER_13_93
*677 FILLER_14_102
*678 FILLER_14_110
*679 FILLER_14_122
*680 FILLER_14_134
*681 FILLER_14_141
*682 FILLER_14_149
*683 FILLER_14_155
*684 FILLER_14_167
*685 FILLER_14_179
*686 FILLER_14_191
*687 FILLER_14_195
*688 FILLER_14_197
*689 FILLER_14_209
*690 FILLER_14_221
*691 FILLER_14_233
*692 FILLER_14_245
*693 FILLER_14_251
*694 FILLER_14_253
*695 FILLER_14_26
*696 FILLER_14_265
*697 FILLER_14_269
*698 FILLER_14_29
*699 FILLER_14_292
*700 FILLER_14_298
*701 FILLER_14_3
*702 FILLER_14_55
*703 FILLER_14_82
*704 FILLER_14_85
*705 FILLER_14_90
*706 FILLER_15_110
*707 FILLER_15_113
*708 FILLER_15_125
*709 FILLER_15_135
*710 FILLER_15_147
*711 FILLER_15_157
*712 FILLER_15_165
*713 FILLER_15_169
*714 FILLER_15_177
*715 FILLER_15_183
*716 FILLER_15_195
*717 FILLER_15_207
*718 FILLER_15_219
*719 FILLER_15_223
*720 FILLER_15_225
*721 FILLER_15_242
*722 FILLER_15_254
*723 FILLER_15_260
*724 FILLER_15_272
*725 FILLER_15_281
*726 FILLER_15_293
*727 FILLER_15_3
*728 FILLER_15_32
*729 FILLER_15_39
*730 FILLER_15_46
*731 FILLER_15_50
*732 FILLER_15_54
*733 FILLER_15_57
*734 FILLER_15_82
*735 FILLER_16_106
*736 FILLER_16_112
*737 FILLER_16_118
*738 FILLER_16_130
*739 FILLER_16_138
*740 FILLER_16_141
*741 FILLER_16_147
*742 FILLER_16_154
*743 FILLER_16_166
*744 FILLER_16_172
*745 FILLER_16_179
*746 FILLER_16_192
*747 FILLER_16_197
*748 FILLER_16_209
*749 FILLER_16_221
*750 FILLER_16_229
*751 FILLER_16_236
*752 FILLER_16_248
*753 FILLER_16_25
*754 FILLER_16_253
*755 FILLER_16_265
*756 FILLER_16_277
*757 FILLER_16_289
*758 FILLER_16_29
*759 FILLER_16_297
*760 FILLER_16_3
*761 FILLER_16_34
*762 FILLER_16_41
*763 FILLER_16_48
*764 FILLER_16_55
*765 FILLER_16_59
*766 FILLER_16_63
*767 FILLER_16_70
*768 FILLER_16_82
*769 FILLER_16_85
*770 FILLER_16_94
*771 FILLER_17_107
*772 FILLER_17_111
*773 FILLER_17_113
*774 FILLER_17_132
*775 FILLER_17_144
*776 FILLER_17_156
*777 FILLER_17_166
*778 FILLER_17_169
*779 FILLER_17_180
*780 FILLER_17_192
*781 FILLER_17_201
*782 FILLER_17_213
*783 FILLER_17_221
*784 FILLER_17_225
*785 FILLER_17_236
*786 FILLER_17_240
*787 FILLER_17_247
*788 FILLER_17_25
*789 FILLER_17_254
*790 FILLER_17_266
*791 FILLER_17_278
*792 FILLER_17_281
*793 FILLER_17_293
*794 FILLER_17_3
*795 FILLER_17_36
*796 FILLER_17_42
*797 FILLER_17_47
*798 FILLER_17_54
*799 FILLER_17_57
*800 FILLER_17_69
*801 FILLER_17_81
*802 FILLER_17_98
*803 FILLER_18_103
*804 FILLER_18_113
*805 FILLER_18_123
*806 FILLER_18_13
*807 FILLER_18_135
*808 FILLER_18_139
*809 FILLER_18_141
*810 FILLER_18_153
*811 FILLER_18_164
*812 FILLER_18_173
*813 FILLER_18_181
*814 FILLER_18_188
*815 FILLER_18_19
*816 FILLER_18_197
*817 FILLER_18_209
*818 FILLER_18_215
*819 FILLER_18_221
*820 FILLER_18_231
*821 FILLER_18_238
*822 FILLER_18_24
*823 FILLER_18_250
*824 FILLER_18_253
*825 FILLER_18_265
*826 FILLER_18_277
*827 FILLER_18_289
*828 FILLER_18_29
*829 FILLER_18_297
*830 FILLER_18_3
*831 FILLER_18_33
*832 FILLER_18_41
*833 FILLER_18_47
*834 FILLER_18_51
*835 FILLER_18_63
*836 FILLER_18_75
*837 FILLER_18_83
*838 FILLER_18_85
*839 FILLER_18_92
*840 FILLER_18_96
*841 FILLER_19_106
*842 FILLER_19_113
*843 FILLER_19_125
*844 FILLER_19_131
*845 FILLER_19_135
*846 FILLER_19_147
*847 FILLER_19_15
*848 FILLER_19_159
*849 FILLER_19_167
*850 FILLER_19_169
*851 FILLER_19_181
*852 FILLER_19_189
*853 FILLER_19_200
*854 FILLER_19_212
*855 FILLER_19_225
*856 FILLER_19_237
*857 FILLER_19_249
*858 FILLER_19_25
*859 FILLER_19_261
*860 FILLER_19_273
*861 FILLER_19_279
*862 FILLER_19_281
*863 FILLER_19_29
*864 FILLER_19_293
*865 FILLER_19_3
*866 FILLER_19_36
*867 FILLER_19_48
*868 FILLER_19_57
*869 FILLER_19_63
*870 FILLER_19_86
*871 FILLER_19_99
*872 FILLER_1_101
*873 FILLER_1_109
*874 FILLER_1_113
*875 FILLER_1_125
*876 FILLER_1_137
*877 FILLER_1_149
*878 FILLER_1_161
*879 FILLER_1_167
*880 FILLER_1_169
*881 FILLER_1_181
*882 FILLER_1_193
*883 FILLER_1_205
*884 FILLER_1_217
*885 FILLER_1_223
*886 FILLER_1_225
*887 FILLER_1_237
*888 FILLER_1_249
*889 FILLER_1_261
*890 FILLER_1_27
*891 FILLER_1_273
*892 FILLER_1_279
*893 FILLER_1_281
*894 FILLER_1_293
*895 FILLER_1_3
*896 FILLER_1_54
*897 FILLER_1_57
*898 FILLER_1_80
*899 FILLER_1_87
*900 FILLER_1_94
*901 FILLER_20_103
*902 FILLER_20_115
*903 FILLER_20_12
*904 FILLER_20_124
*905 FILLER_20_136
*906 FILLER_20_141
*907 FILLER_20_149
*908 FILLER_20_157
*909 FILLER_20_165
*910 FILLER_20_173
*911 FILLER_20_185
*912 FILLER_20_193
*913 FILLER_20_197
*914 FILLER_20_20
*915 FILLER_20_209
*916 FILLER_20_220
*917 FILLER_20_229
*918 FILLER_20_241
*919 FILLER_20_250
*920 FILLER_20_253
*921 FILLER_20_26
*922 FILLER_20_260
*923 FILLER_20_272
*924 FILLER_20_283
*925 FILLER_20_29
*926 FILLER_20_295
*927 FILLER_20_3
*928 FILLER_20_34
*929 FILLER_20_46
*930 FILLER_20_56
*931 FILLER_20_82
*932 FILLER_20_85
*933 FILLER_20_89
*934 FILLER_20_94
*935 FILLER_21_107
*936 FILLER_21_111
*937 FILLER_21_113
*938 FILLER_21_126
*939 FILLER_21_138
*940 FILLER_21_144
*941 FILLER_21_15
*942 FILLER_21_150
*943 FILLER_21_159
*944 FILLER_21_167
*945 FILLER_21_169
*946 FILLER_21_177
*947 FILLER_21_186
*948 FILLER_21_198
*949 FILLER_21_21
*950 FILLER_21_210
*951 FILLER_21_222
*952 FILLER_21_225
*953 FILLER_21_236
*954 FILLER_21_248
*955 FILLER_21_260
*956 FILLER_21_272
*957 FILLER_21_281
*958 FILLER_21_29
*959 FILLER_21_293
*960 FILLER_21_3
*961 FILLER_21_41
*962 FILLER_21_49
*963 FILLER_21_53
*964 FILLER_21_57
*965 FILLER_21_68
*966 FILLER_21_8
*967 FILLER_21_94
*968 FILLER_22_101
*969 FILLER_22_112
*970 FILLER_22_12
*971 FILLER_22_124
*972 FILLER_22_136
*973 FILLER_22_141
*974 FILLER_22_147
*975 FILLER_22_153
*976 FILLER_22_165
*977 FILLER_22_177
*978 FILLER_22_189
*979 FILLER_22_195
*980 FILLER_22_197
*981 FILLER_22_209
*982 FILLER_22_222
*983 FILLER_22_234
*984 FILLER_22_24
*985 FILLER_22_246
*986 FILLER_22_253
*987 FILLER_22_264
*988 FILLER_22_276
*989 FILLER_22_288
*990 FILLER_22_29
*991 FILLER_22_296
*992 FILLER_22_3
*993 FILLER_22_34
*994 FILLER_22_41
*995 FILLER_22_48
*996 FILLER_22_63
*997 FILLER_22_71
*998 FILLER_22_82
*999 FILLER_22_85
*1000 FILLER_22_93
*1001 FILLER_23_106
*1002 FILLER_23_113
*1003 FILLER_23_125
*1004 FILLER_23_129
*1005 FILLER_23_141
*1006 FILLER_23_15
*1007 FILLER_23_153
*1008 FILLER_23_165
*1009 FILLER_23_169
*1010 FILLER_23_177
*1011 FILLER_23_184
*1012 FILLER_23_196
*1013 FILLER_23_208
*1014 FILLER_23_220
*1015 FILLER_23_225
*1016 FILLER_23_232
*1017 FILLER_23_244
*1018 FILLER_23_256
*1019 FILLER_23_268
*1020 FILLER_23_27
*1021 FILLER_23_281
*1022 FILLER_23_293
*1023 FILLER_23_3
*1024 FILLER_23_32
*1025 FILLER_23_41
*1026 FILLER_23_52
*1027 FILLER_23_57
*1028 FILLER_23_72
*1029 FILLER_23_8
*1030 FILLER_23_80
*1031 FILLER_23_89
*1032 FILLER_24_118
*1033 FILLER_24_130
*1034 FILLER_24_138
*1035 FILLER_24_141
*1036 FILLER_24_147
*1037 FILLER_24_15
*1038 FILLER_24_152
*1039 FILLER_24_160
*1040 FILLER_24_170
*1041 FILLER_24_182
*1042 FILLER_24_194
*1043 FILLER_24_197
*1044 FILLER_24_209
*1045 FILLER_24_220
*1046 FILLER_24_232
*1047 FILLER_24_24
*1048 FILLER_24_244
*1049 FILLER_24_253
*1050 FILLER_24_265
*1051 FILLER_24_277
*1052 FILLER_24_289
*1053 FILLER_24_29
*1054 FILLER_24_297
*1055 FILLER_24_3
*1056 FILLER_24_34
*1057 FILLER_24_46
*1058 FILLER_24_54
*1059 FILLER_24_58
*1060 FILLER_24_69
*1061 FILLER_24_8
*1062 FILLER_24_81
*1063 FILLER_24_85
*1064 FILLER_24_97
*1065 FILLER_25_105
*1066 FILLER_25_111
*1067 FILLER_25_113
*1068 FILLER_25_120
*1069 FILLER_25_135
*1070 FILLER_25_147
*1071 FILLER_25_156
*1072 FILLER_25_169
*1073 FILLER_25_181
*1074 FILLER_25_193
*1075 FILLER_25_197
*1076 FILLER_25_207
*1077 FILLER_25_219
*1078 FILLER_25_223
*1079 FILLER_25_225
*1080 FILLER_25_241
*1081 FILLER_25_251
*1082 FILLER_25_263
*1083 FILLER_25_275
*1084 FILLER_25_279
*1085 FILLER_25_281
*1086 FILLER_25_293
*1087 FILLER_25_3
*1088 FILLER_25_35
*1089 FILLER_25_47
*1090 FILLER_25_55
*1091 FILLER_25_57
*1092 FILLER_25_69
*1093 FILLER_25_81
*1094 FILLER_25_9
*1095 FILLER_25_93
*1096 FILLER_26_109
*1097 FILLER_26_122
*1098 FILLER_26_132
*1099 FILLER_26_14
*1100 FILLER_26_141
*1101 FILLER_26_148
*1102 FILLER_26_160
*1103 FILLER_26_166
*1104 FILLER_26_173
*1105 FILLER_26_18
*1106 FILLER_26_183
*1107 FILLER_26_191
*1108 FILLER_26_195
*1109 FILLER_26_197
*1110 FILLER_26_207
*1111 FILLER_26_211
*1112 FILLER_26_217
*1113 FILLER_26_22
*1114 FILLER_26_229
*1115 FILLER_26_235
*1116 FILLER_26_244
*1117 FILLER_26_253
*1118 FILLER_26_26
*1119 FILLER_26_260
*1120 FILLER_26_272
*1121 FILLER_26_280
*1122 FILLER_26_29
*1123 FILLER_26_292
*1124 FILLER_26_298
*1125 FILLER_26_3
*1126 FILLER_26_35
*1127 FILLER_26_39
*1128 FILLER_26_51
*1129 FILLER_26_63
*1130 FILLER_26_75
*1131 FILLER_26_8
*1132 FILLER_26_83
*1133 FILLER_26_85
*1134 FILLER_27_105
*1135 FILLER_27_111
*1136 FILLER_27_113
*1137 FILLER_27_12
*1138 FILLER_27_123
*1139 FILLER_27_130
*1140 FILLER_27_134
*1141 FILLER_27_138
*1142 FILLER_27_150
*1143 FILLER_27_158
*1144 FILLER_27_166
*1145 FILLER_27_169
*1146 FILLER_27_178
*1147 FILLER_27_18
*1148 FILLER_27_190
*1149 FILLER_27_199
*1150 FILLER_27_206
*1151 FILLER_27_218
*1152 FILLER_27_225
*1153 FILLER_27_237
*1154 FILLER_27_246
*1155 FILLER_27_255
*1156 FILLER_27_267
*1157 FILLER_27_274
*1158 FILLER_27_281
*1159 FILLER_27_293
*1160 FILLER_27_3
*1161 FILLER_27_35
*1162 FILLER_27_42
*1163 FILLER_27_48
*1164 FILLER_27_54
*1165 FILLER_27_57
*1166 FILLER_27_7
*1167 FILLER_27_72
*1168 FILLER_27_80
*1169 FILLER_27_93
*1170 FILLER_27_97
*1171 FILLER_28_10
*1172 FILLER_28_103
*1173 FILLER_28_115
*1174 FILLER_28_122
*1175 FILLER_28_137
*1176 FILLER_28_141
*1177 FILLER_28_145
*1178 FILLER_28_153
*1179 FILLER_28_166
*1180 FILLER_28_177
*1181 FILLER_28_18
*1182 FILLER_28_188
*1183 FILLER_28_197
*1184 FILLER_28_204
*1185 FILLER_28_216
*1186 FILLER_28_228
*1187 FILLER_28_237
*1188 FILLER_28_247
*1189 FILLER_28_251
*1190 FILLER_28_253
*1191 FILLER_28_26
*1192 FILLER_28_265
*1193 FILLER_28_277
*1194 FILLER_28_289
*1195 FILLER_28_29
*1196 FILLER_28_297
*1197 FILLER_28_3
*1198 FILLER_28_36
*1199 FILLER_28_43
*1200 FILLER_28_51
*1201 FILLER_28_59
*1202 FILLER_28_76
*1203 FILLER_28_85
*1204 FILLER_28_90
*1205 FILLER_28_94
*1206 FILLER_29_104
*1207 FILLER_29_113
*1208 FILLER_29_12
*1209 FILLER_29_125
*1210 FILLER_29_132
*1211 FILLER_29_144
*1212 FILLER_29_156
*1213 FILLER_29_169
*1214 FILLER_29_18
*1215 FILLER_29_180
*1216 FILLER_29_192
*1217 FILLER_29_201
*1218 FILLER_29_213
*1219 FILLER_29_221
*1220 FILLER_29_225
*1221 FILLER_29_23
*1222 FILLER_29_237
*1223 FILLER_29_249
*1224 FILLER_29_261
*1225 FILLER_29_273
*1226 FILLER_29_279
*1227 FILLER_29_281
*1228 FILLER_29_293
*1229 FILLER_29_3
*1230 FILLER_29_31
*1231 FILLER_29_38
*1232 FILLER_29_50
*1233 FILLER_29_54
*1234 FILLER_29_57
*1235 FILLER_29_70
*1236 FILLER_29_84
*1237 FILLER_29_92
*1238 FILLER_2_109
*1239 FILLER_2_121
*1240 FILLER_2_133
*1241 FILLER_2_139
*1242 FILLER_2_141
*1243 FILLER_2_153
*1244 FILLER_2_165
*1245 FILLER_2_177
*1246 FILLER_2_189
*1247 FILLER_2_195
*1248 FILLER_2_197
*1249 FILLER_2_209
*1250 FILLER_2_221
*1251 FILLER_2_233
*1252 FILLER_2_245
*1253 FILLER_2_251
*1254 FILLER_2_253
*1255 FILLER_2_26
*1256 FILLER_2_265
*1257 FILLER_2_277
*1258 FILLER_2_289
*1259 FILLER_2_29
*1260 FILLER_2_297
*1261 FILLER_2_3
*1262 FILLER_2_41
*1263 FILLER_2_66
*1264 FILLER_2_73
*1265 FILLER_2_80
*1266 FILLER_2_85
*1267 FILLER_2_90
*1268 FILLER_2_97
*1269 FILLER_30_106
*1270 FILLER_30_11
*1271 FILLER_30_118
*1272 FILLER_30_133
*1273 FILLER_30_139
*1274 FILLER_30_141
*1275 FILLER_30_153
*1276 FILLER_30_165
*1277 FILLER_30_176
*1278 FILLER_30_189
*1279 FILLER_30_195
*1280 FILLER_30_197
*1281 FILLER_30_21
*1282 FILLER_30_214
*1283 FILLER_30_222
*1284 FILLER_30_231
*1285 FILLER_30_243
*1286 FILLER_30_251
*1287 FILLER_30_253
*1288 FILLER_30_262
*1289 FILLER_30_27
*1290 FILLER_30_274
*1291 FILLER_30_286
*1292 FILLER_30_29
*1293 FILLER_30_298
*1294 FILLER_30_3
*1295 FILLER_30_35
*1296 FILLER_30_42
*1297 FILLER_30_61
*1298 FILLER_30_69
*1299 FILLER_30_76
*1300 FILLER_30_85
*1301 FILLER_30_94
*1302 FILLER_31_111
*1303 FILLER_31_113
*1304 FILLER_31_117
*1305 FILLER_31_125
*1306 FILLER_31_137
*1307 FILLER_31_14
*1308 FILLER_31_149
*1309 FILLER_31_161
*1310 FILLER_31_167
*1311 FILLER_31_169
*1312 FILLER_31_177
*1313 FILLER_31_186
*1314 FILLER_31_198
*1315 FILLER_31_203
*1316 FILLER_31_21
*1317 FILLER_31_215
*1318 FILLER_31_223
*1319 FILLER_31_225
*1320 FILLER_31_234
*1321 FILLER_31_242
*1322 FILLER_31_254
*1323 FILLER_31_266
*1324 FILLER_31_278
*1325 FILLER_31_281
*1326 FILLER_31_293
*1327 FILLER_31_3
*1328 FILLER_31_30
*1329 FILLER_31_38
*1330 FILLER_31_47
*1331 FILLER_31_54
*1332 FILLER_31_57
*1333 FILLER_31_63
*1334 FILLER_31_77
*1335 FILLER_31_81
*1336 FILLER_31_87
*1337 FILLER_31_99
*1338 FILLER_32_104
*1339 FILLER_32_112
*1340 FILLER_32_116
*1341 FILLER_32_128
*1342 FILLER_32_141
*1343 FILLER_32_147
*1344 FILLER_32_152
*1345 FILLER_32_164
*1346 FILLER_32_17
*1347 FILLER_32_172
*1348 FILLER_32_180
*1349 FILLER_32_187
*1350 FILLER_32_195
*1351 FILLER_32_197
*1352 FILLER_32_205
*1353 FILLER_32_21
*1354 FILLER_32_215
*1355 FILLER_32_227
*1356 FILLER_32_233
*1357 FILLER_32_240
*1358 FILLER_32_253
*1359 FILLER_32_26
*1360 FILLER_32_263
*1361 FILLER_32_275
*1362 FILLER_32_287
*1363 FILLER_32_29
*1364 FILLER_32_3
*1365 FILLER_32_38
*1366 FILLER_32_46
*1367 FILLER_32_55
*1368 FILLER_32_67
*1369 FILLER_32_78
*1370 FILLER_32_85
*1371 FILLER_32_9
*1372 FILLER_32_95
*1373 FILLER_33_110
*1374 FILLER_33_113
*1375 FILLER_33_119
*1376 FILLER_33_123
*1377 FILLER_33_130
*1378 FILLER_33_142
*1379 FILLER_33_15
*1380 FILLER_33_154
*1381 FILLER_33_166
*1382 FILLER_33_169
*1383 FILLER_33_181
*1384 FILLER_33_188
*1385 FILLER_33_200
*1386 FILLER_33_212
*1387 FILLER_33_225
*1388 FILLER_33_237
*1389 FILLER_33_249
*1390 FILLER_33_261
*1391 FILLER_33_273
*1392 FILLER_33_279
*1393 FILLER_33_281
*1394 FILLER_33_293
*1395 FILLER_33_3
*1396 FILLER_33_30
*1397 FILLER_33_47
*1398 FILLER_33_54
*1399 FILLER_33_57
*1400 FILLER_33_63
*1401 FILLER_33_73
*1402 FILLER_33_88
*1403 FILLER_33_98
*1404 FILLER_34_102
*1405 FILLER_34_111
*1406 FILLER_34_121
*1407 FILLER_34_135
*1408 FILLER_34_139
*1409 FILLER_34_141
*1410 FILLER_34_15
*1411 FILLER_34_153
*1412 FILLER_34_165
*1413 FILLER_34_177
*1414 FILLER_34_189
*1415 FILLER_34_195
*1416 FILLER_34_197
*1417 FILLER_34_209
*1418 FILLER_34_221
*1419 FILLER_34_233
*1420 FILLER_34_245
*1421 FILLER_34_251
*1422 FILLER_34_253
*1423 FILLER_34_261
*1424 FILLER_34_27
*1425 FILLER_34_273
*1426 FILLER_34_285
*1427 FILLER_34_29
*1428 FILLER_34_297
*1429 FILLER_34_3
*1430 FILLER_34_46
*1431 FILLER_34_54
*1432 FILLER_34_62
*1433 FILLER_34_74
*1434 FILLER_34_82
*1435 FILLER_34_85
*1436 FILLER_34_89
*1437 FILLER_34_94
*1438 FILLER_35_100
*1439 FILLER_35_113
*1440 FILLER_35_117
*1441 FILLER_35_125
*1442 FILLER_35_138
*1443 FILLER_35_15
*1444 FILLER_35_150
*1445 FILLER_35_162
*1446 FILLER_35_169
*1447 FILLER_35_181
*1448 FILLER_35_193
*1449 FILLER_35_205
*1450 FILLER_35_217
*1451 FILLER_35_223
*1452 FILLER_35_225
*1453 FILLER_35_237
*1454 FILLER_35_249
*1455 FILLER_35_261
*1456 FILLER_35_267
*1457 FILLER_35_27
*1458 FILLER_35_271
*1459 FILLER_35_279
*1460 FILLER_35_281
*1461 FILLER_35_293
*1462 FILLER_35_3
*1463 FILLER_35_44
*1464 FILLER_35_50
*1465 FILLER_35_54
*1466 FILLER_35_57
*1467 FILLER_35_67
*1468 FILLER_35_76
*1469 FILLER_35_88
*1470 FILLER_36_116
*1471 FILLER_36_128
*1472 FILLER_36_141
*1473 FILLER_36_15
*1474 FILLER_36_153
*1475 FILLER_36_165
*1476 FILLER_36_173
*1477 FILLER_36_180
*1478 FILLER_36_192
*1479 FILLER_36_197
*1480 FILLER_36_209
*1481 FILLER_36_221
*1482 FILLER_36_233
*1483 FILLER_36_243
*1484 FILLER_36_251
*1485 FILLER_36_253
*1486 FILLER_36_265
*1487 FILLER_36_27
*1488 FILLER_36_277
*1489 FILLER_36_289
*1490 FILLER_36_29
*1491 FILLER_36_297
*1492 FILLER_36_3
*1493 FILLER_36_37
*1494 FILLER_36_43
*1495 FILLER_36_54
*1496 FILLER_36_60
*1497 FILLER_36_68
*1498 FILLER_36_79
*1499 FILLER_36_83
*1500 FILLER_36_85
*1501 FILLER_36_93
*1502 FILLER_37_104
*1503 FILLER_37_113
*1504 FILLER_37_117
*1505 FILLER_37_127
*1506 FILLER_37_139
*1507 FILLER_37_15
*1508 FILLER_37_151
*1509 FILLER_37_163
*1510 FILLER_37_167
*1511 FILLER_37_169
*1512 FILLER_37_181
*1513 FILLER_37_193
*1514 FILLER_37_204
*1515 FILLER_37_216
*1516 FILLER_37_225
*1517 FILLER_37_236
*1518 FILLER_37_24
*1519 FILLER_37_248
*1520 FILLER_37_260
*1521 FILLER_37_268
*1522 FILLER_37_273
*1523 FILLER_37_279
*1524 FILLER_37_281
*1525 FILLER_37_289
*1526 FILLER_37_297
*1527 FILLER_37_3
*1528 FILLER_37_36
*1529 FILLER_37_40
*1530 FILLER_37_49
*1531 FILLER_37_55
*1532 FILLER_37_57
*1533 FILLER_37_65
*1534 FILLER_37_73
*1535 FILLER_37_94
*1536 FILLER_38_100
*1537 FILLER_38_108
*1538 FILLER_38_114
*1539 FILLER_38_12
*1540 FILLER_38_126
*1541 FILLER_38_138
*1542 FILLER_38_141
*1543 FILLER_38_153
*1544 FILLER_38_161
*1545 FILLER_38_173
*1546 FILLER_38_185
*1547 FILLER_38_193
*1548 FILLER_38_197
*1549 FILLER_38_209
*1550 FILLER_38_221
*1551 FILLER_38_233
*1552 FILLER_38_245
*1553 FILLER_38_251
*1554 FILLER_38_253
*1555 FILLER_38_26
*1556 FILLER_38_265
*1557 FILLER_38_277
*1558 FILLER_38_289
*1559 FILLER_38_29
*1560 FILLER_38_297
*1561 FILLER_38_3
*1562 FILLER_38_33
*1563 FILLER_38_39
*1564 FILLER_38_47
*1565 FILLER_38_52
*1566 FILLER_38_60
*1567 FILLER_38_67
*1568 FILLER_38_76
*1569 FILLER_38_8
*1570 FILLER_38_85
*1571 FILLER_39_108
*1572 FILLER_39_113
*1573 FILLER_39_121
*1574 FILLER_39_131
*1575 FILLER_39_143
*1576 FILLER_39_163
*1577 FILLER_39_167
*1578 FILLER_39_169
*1579 FILLER_39_17
*1580 FILLER_39_181
*1581 FILLER_39_193
*1582 FILLER_39_205
*1583 FILLER_39_222
*1584 FILLER_39_225
*1585 FILLER_39_24
*1586 FILLER_39_240
*1587 FILLER_39_252
*1588 FILLER_39_264
*1589 FILLER_39_276
*1590 FILLER_39_281
*1591 FILLER_39_293
*1592 FILLER_39_3
*1593 FILLER_39_32
*1594 FILLER_39_39
*1595 FILLER_39_45
*1596 FILLER_39_53
*1597 FILLER_39_57
*1598 FILLER_39_64
*1599 FILLER_39_74
*1600 FILLER_39_9
*1601 FILLER_39_97
*1602 FILLER_3_106
*1603 FILLER_3_113
*1604 FILLER_3_125
*1605 FILLER_3_137
*1606 FILLER_3_143
*1607 FILLER_3_166
*1608 FILLER_3_169
*1609 FILLER_3_181
*1610 FILLER_3_193
*1611 FILLER_3_205
*1612 FILLER_3_217
*1613 FILLER_3_223
*1614 FILLER_3_225
*1615 FILLER_3_237
*1616 FILLER_3_249
*1617 FILLER_3_261
*1618 FILLER_3_27
*1619 FILLER_3_273
*1620 FILLER_3_279
*1621 FILLER_3_281
*1622 FILLER_3_293
*1623 FILLER_3_3
*1624 FILLER_3_54
*1625 FILLER_3_57
*1626 FILLER_3_80
*1627 FILLER_3_87
*1628 FILLER_3_94
*1629 FILLER_40_100
*1630 FILLER_40_104
*1631 FILLER_40_108
*1632 FILLER_40_119
*1633 FILLER_40_138
*1634 FILLER_40_141
*1635 FILLER_40_151
*1636 FILLER_40_157
*1637 FILLER_40_162
*1638 FILLER_40_169
*1639 FILLER_40_18
*1640 FILLER_40_181
*1641 FILLER_40_193
*1642 FILLER_40_197
*1643 FILLER_40_209
*1644 FILLER_40_221
*1645 FILLER_40_233
*1646 FILLER_40_245
*1647 FILLER_40_25
*1648 FILLER_40_251
*1649 FILLER_40_253
*1650 FILLER_40_265
*1651 FILLER_40_277
*1652 FILLER_40_289
*1653 FILLER_40_29
*1654 FILLER_40_296
*1655 FILLER_40_3
*1656 FILLER_40_33
*1657 FILLER_40_37
*1658 FILLER_40_57
*1659 FILLER_40_63
*1660 FILLER_40_77
*1661 FILLER_40_83
*1662 FILLER_40_85
*1663 FILLER_40_9
*1664 FILLER_41_106
*1665 FILLER_41_113
*1666 FILLER_41_121
*1667 FILLER_41_133
*1668 FILLER_41_14
*1669 FILLER_41_143
*1670 FILLER_41_155
*1671 FILLER_41_167
*1672 FILLER_41_169
*1673 FILLER_41_182
*1674 FILLER_41_194
*1675 FILLER_41_206
*1676 FILLER_41_218
*1677 FILLER_41_22
*1678 FILLER_41_225
*1679 FILLER_41_237
*1680 FILLER_41_249
*1681 FILLER_41_261
*1682 FILLER_41_269
*1683 FILLER_41_273
*1684 FILLER_41_279
*1685 FILLER_41_281
*1686 FILLER_41_293
*1687 FILLER_41_3
*1688 FILLER_41_32
*1689 FILLER_41_43
*1690 FILLER_41_52
*1691 FILLER_41_57
*1692 FILLER_41_63
*1693 FILLER_41_70
*1694 FILLER_41_82
*1695 FILLER_41_88
*1696 FILLER_41_94
*1697 FILLER_42_105
*1698 FILLER_42_113
*1699 FILLER_42_123
*1700 FILLER_42_131
*1701 FILLER_42_139
*1702 FILLER_42_141
*1703 FILLER_42_145
*1704 FILLER_42_153
*1705 FILLER_42_157
*1706 FILLER_42_16
*1707 FILLER_42_171
*1708 FILLER_42_183
*1709 FILLER_42_195
*1710 FILLER_42_197
*1711 FILLER_42_208
*1712 FILLER_42_221
*1713 FILLER_42_23
*1714 FILLER_42_233
*1715 FILLER_42_242
*1716 FILLER_42_250
*1717 FILLER_42_253
*1718 FILLER_42_265
*1719 FILLER_42_27
*1720 FILLER_42_277
*1721 FILLER_42_285
*1722 FILLER_42_29
*1723 FILLER_42_294
*1724 FILLER_42_298
*1725 FILLER_42_3
*1726 FILLER_42_41
*1727 FILLER_42_47
*1728 FILLER_42_51
*1729 FILLER_42_58
*1730 FILLER_42_65
*1731 FILLER_42_77
*1732 FILLER_42_8
*1733 FILLER_42_83