*SPEF "ieee 1481-1999"
*DESIGN "BB_SYSTEM"
*DATE "11:11:11 Fri 11 11, 1111"
*VENDOR "OpenRCX"
*PROGRAM "Parallel Extraction"
*VERSION "1.0"
*DESIGN_FLOW "NAME_SCOPE LOCAL" "PIN_CAP NONE"
*DIVIDER /
*DELIMITER :
*BUS_DELIMITER []
*T_UNIT 1 NS
*C_UNIT 1 PF
*R_UNIT 1 OHM
*L_UNIT 1 HENRY

*NAME_MAP
*1 io_in[0]
*2 io_in[1]
*3 io_in[2]
*4 io_in[3]
*5 io_in[4]
*6 io_in[5]
*7 io_in[6]
*8 io_in[7]
*9 io_out[0]
*10 io_out[1]
*11 io_out[2]
*12 io_out[3]
*13 io_out[4]
*14 io_out[5]
*15 io_out[6]
*16 io_out[7]
*19 SC_DEBOUNCE1_u0\.DFF1
*20 SC_DEBOUNCE1_u0\.DFF2
*21 SC_DEBOUNCE1_u0\.SC_DEBOUNCE1_button_Out
*22 SC_DEBOUNCE1_u0\.q_reg\[0\]
*23 SC_DEBOUNCE1_u0\.q_reg\[10\]
*24 SC_DEBOUNCE1_u0\.q_reg\[1\]
*25 SC_DEBOUNCE1_u0\.q_reg\[2\]
*26 SC_DEBOUNCE1_u0\.q_reg\[3\]
*27 SC_DEBOUNCE1_u0\.q_reg\[4\]
*28 SC_DEBOUNCE1_u0\.q_reg\[5\]
*29 SC_DEBOUNCE1_u0\.q_reg\[6\]
*30 SC_DEBOUNCE1_u0\.q_reg\[7\]
*31 SC_DEBOUNCE1_u0\.q_reg\[8\]
*32 SC_DEBOUNCE1_u0\.q_reg\[9\]
*33 SC_DEBOUNCE1_u1\.DFF1
*34 SC_DEBOUNCE1_u1\.DFF2
*35 SC_DEBOUNCE1_u1\.SC_DEBOUNCE1_button_Out
*36 SC_DEBOUNCE1_u1\.q_reg\[0\]
*37 SC_DEBOUNCE1_u1\.q_reg\[10\]
*38 SC_DEBOUNCE1_u1\.q_reg\[1\]
*39 SC_DEBOUNCE1_u1\.q_reg\[2\]
*40 SC_DEBOUNCE1_u1\.q_reg\[3\]
*41 SC_DEBOUNCE1_u1\.q_reg\[4\]
*42 SC_DEBOUNCE1_u1\.q_reg\[5\]
*43 SC_DEBOUNCE1_u1\.q_reg\[6\]
*44 SC_DEBOUNCE1_u1\.q_reg\[7\]
*45 SC_DEBOUNCE1_u1\.q_reg\[8\]
*46 SC_DEBOUNCE1_u1\.q_reg\[9\]
*47 SC_PSRANDOM_u0\.PSRANDOM_Register\[0\]
*48 SC_PSRANDOM_u0\.PSRANDOM_Register\[1\]
*49 SC_PSRANDOM_u0\.PSRANDOM_Register\[2\]
*50 SC_PSRANDOM_u0\.PSRANDOM_Register\[3\]
*51 SC_PSRANDOM_u0\.PSRANDOM_Register\[4\]
*52 SC_PSRANDOM_u0\.PSRANDOM_Register\[5\]
*53 SC_PSRANDOM_u0\.PSRANDOM_Register\[6\]
*54 SC_PSRANDOM_u0\.PSRANDOM_Register\[7\]
*55 SC_PSRANDOM_u0\.PSRANDOM_Signal\[0\]
*56 SC_PSRANDOM_u0\.PSRANDOM_Signal\[1\]
*57 SC_PSRANDOM_u0\.PSRANDOM_Signal\[2\]
*58 SC_PSRANDOM_u0\.PSRANDOM_Signal\[3\]
*59 SC_PSRANDOM_u0\.PSRANDOM_Signal\[4\]
*60 SC_PSRANDOM_u0\.PSRANDOM_Signal\[5\]
*61 SC_PSRANDOM_u0\.PSRANDOM_Signal\[6\]
*62 SC_PSRANDOM_u0\.PSRANDOM_Signal\[7\]
*63 SC_STATEMACHINE_u0\.STATE_Register\[0\]
*64 SC_STATEMACHINE_u0\.STATE_Register\[1\]
*65 SC_STATEMACHINE_u0\.STATE_Register\[2\]
*66 SC_STATEMACHINE_u0\.STATE_Signal\[0\]
*67 SC_STATEMACHINE_u0\.STATE_Signal\[1\]
*68 SC_STATEMACHINE_u0\.STATE_Signal\[2\]
*69 _000_
*70 _001_
*71 _002_
*72 _003_
*73 _004_
*74 _005_
*75 _006_
*76 _007_
*77 _008_
*78 _009_
*79 _010_
*80 _011_
*81 _012_
*82 _013_
*83 _014_
*84 _015_
*85 _016_
*86 _017_
*87 _018_
*88 _019_
*89 _020_
*90 _021_
*91 _022_
*92 _023_
*93 _024_
*94 _025_
*95 _026_
*96 _027_
*97 _028_
*98 _029_
*99 _030_
*100 _031_
*101 _032_
*102 _033_
*103 _034_
*104 _035_
*105 _036_
*106 _037_
*107 _038_
*108 _039_
*109 _040_
*110 _041_
*111 _042_
*112 _043_
*113 _044_
*114 _045_
*115 _046_
*116 _047_
*117 _048_
*118 _049_
*119 _050_
*120 _051_
*121 _052_
*122 _053_
*123 _054_
*124 _055_
*125 _056_
*126 _057_
*127 _058_
*128 _059_
*129 _060_
*130 _061_
*131 _062_
*132 _063_
*133 _064_
*134 _065_
*135 _066_
*136 _067_
*137 _068_
*138 _069_
*139 _070_
*140 _071_
*141 _072_
*142 _073_
*143 _074_
*144 _075_
*145 _076_
*146 _077_
*147 _078_
*148 _079_
*149 _080_
*150 _081_
*151 _082_
*152 _083_
*153 _084_
*154 _085_
*155 _086_
*156 _087_
*157 _088_
*158 _089_
*159 _090_
*160 _091_
*161 _092_
*162 _093_
*163 _094_
*164 _095_
*165 _096_
*166 _097_
*167 _098_
*168 _099_
*169 _100_
*170 _101_
*171 _102_
*172 _103_
*173 _104_
*174 _105_
*175 _106_
*176 _107_
*177 _108_
*178 _109_
*179 _110_
*180 _111_
*181 _112_
*182 _113_
*183 _114_
*184 _115_
*185 _116_
*186 _117_
*187 _118_
*188 _119_
*189 _120_
*190 _121_
*191 _122_
*192 _123_
*193 _124_
*194 _125_
*195 _126_
*196 _127_
*197 _128_
*198 _129_
*199 _130_
*200 _131_
*201 _132_
*202 _133_
*203 _134_
*204 _135_
*205 _136_
*206 _137_
*207 _138_
*208 _139_
*209 _140_
*210 _141_
*211 _142_
*212 _143_
*213 _144_
*214 _145_
*215 _146_
*216 _147_
*217 _148_
*218 _149_
*219 _150_
*220 _151_
*221 _152_
*222 _153_
*223 _154_
*224 _155_
*225 _156_
*226 _157_
*227 _158_
*228 _159_
*229 _160_
*230 _161_
*231 _162_
*232 _163_
*233 _164_
*234 _165_
*235 _166_
*236 _167_
*237 clknet_0_io_in[0]
*238 clknet_2_0__leaf_io_in[0]
*239 clknet_2_1__leaf_io_in[0]
*240 clknet_2_2__leaf_io_in[0]
*241 clknet_2_3__leaf_io_in[0]
*242 net1
*243 net2
*244 net3
*245 net4
*246 net5
*247 net6
*248 net7
*249 ANTENNA_1
*250 FILLER_0_109
*251 FILLER_0_113
*252 FILLER_0_125
*253 FILLER_0_137
*254 FILLER_0_141
*255 FILLER_0_153
*256 FILLER_0_165
*257 FILLER_0_169
*258 FILLER_0_181
*259 FILLER_0_193
*260 FILLER_0_197
*261 FILLER_0_209
*262 FILLER_0_221
*263 FILLER_0_225
*264 FILLER_0_237
*265 FILLER_0_249
*266 FILLER_0_25
*267 FILLER_0_253
*268 FILLER_0_265
*269 FILLER_0_277
*270 FILLER_0_281
*271 FILLER_0_29
*272 FILLER_0_293
*273 FILLER_0_3
*274 FILLER_0_33
*275 FILLER_0_50
*276 FILLER_0_57
*277 FILLER_0_75
*278 FILLER_0_83
*279 FILLER_0_85
*280 FILLER_0_97
*281 FILLER_10_112
*282 FILLER_10_124
*283 FILLER_10_138
*284 FILLER_10_141
*285 FILLER_10_147
*286 FILLER_10_156
*287 FILLER_10_163
*288 FILLER_10_171
*289 FILLER_10_178
*290 FILLER_10_190
*291 FILLER_10_197
*292 FILLER_10_209
*293 FILLER_10_221
*294 FILLER_10_233
*295 FILLER_10_245
*296 FILLER_10_251
*297 FILLER_10_253
*298 FILLER_10_26
*299 FILLER_10_265
*300 FILLER_10_277
*301 FILLER_10_289
*302 FILLER_10_29
*303 FILLER_10_297
*304 FILLER_10_3
*305 FILLER_10_34
*306 FILLER_10_69
*307 FILLER_10_82
*308 FILLER_10_85
*309 FILLER_10_96
*310 FILLER_11_109
*311 FILLER_11_113
*312 FILLER_11_129
*313 FILLER_11_14
*314 FILLER_11_141
*315 FILLER_11_153
*316 FILLER_11_165
*317 FILLER_11_169
*318 FILLER_11_181
*319 FILLER_11_193
*320 FILLER_11_205
*321 FILLER_11_211
*322 FILLER_11_222
*323 FILLER_11_225
*324 FILLER_11_237
*325 FILLER_11_249
*326 FILLER_11_261
*327 FILLER_11_273
*328 FILLER_11_279
*329 FILLER_11_281
*330 FILLER_11_293
*331 FILLER_11_3
*332 FILLER_11_38
*333 FILLER_11_50
*334 FILLER_11_57
*335 FILLER_11_69
*336 FILLER_11_77
*337 FILLER_11_8
*338 FILLER_11_82
*339 FILLER_11_90
*340 FILLER_11_97
*341 FILLER_12_105
*342 FILLER_12_111
*343 FILLER_12_117
*344 FILLER_12_126
*345 FILLER_12_132
*346 FILLER_12_138
*347 FILLER_12_141
*348 FILLER_12_149
*349 FILLER_12_158
*350 FILLER_12_169
*351 FILLER_12_181
*352 FILLER_12_193
*353 FILLER_12_197
*354 FILLER_12_201
*355 FILLER_12_210
*356 FILLER_12_222
*357 FILLER_12_234
*358 FILLER_12_246
*359 FILLER_12_253
*360 FILLER_12_26
*361 FILLER_12_265
*362 FILLER_12_277
*363 FILLER_12_289
*364 FILLER_12_29
*365 FILLER_12_297
*366 FILLER_12_3
*367 FILLER_12_41
*368 FILLER_12_65
*369 FILLER_12_77
*370 FILLER_12_82
*371 FILLER_12_85
*372 FILLER_12_9
*373 FILLER_12_99
*374 FILLER_13_102
*375 FILLER_13_11
*376 FILLER_13_110
*377 FILLER_13_113
*378 FILLER_13_125
*379 FILLER_13_137
*380 FILLER_13_141
*381 FILLER_13_149
*382 FILLER_13_161
*383 FILLER_13_167
*384 FILLER_13_169
*385 FILLER_13_181
*386 FILLER_13_188
*387 FILLER_13_200
*388 FILLER_13_212
*389 FILLER_13_225
*390 FILLER_13_237
*391 FILLER_13_249
*392 FILLER_13_261
*393 FILLER_13_273
*394 FILLER_13_279
*395 FILLER_13_281
*396 FILLER_13_293
*397 FILLER_13_3
*398 FILLER_13_30
*399 FILLER_13_54
*400 FILLER_13_57
*401 FILLER_13_75
*402 FILLER_13_86
*403 FILLER_14_110
*404 FILLER_14_117
*405 FILLER_14_123
*406 FILLER_14_127
*407 FILLER_14_134
*408 FILLER_14_141
*409 FILLER_14_151
*410 FILLER_14_163
*411 FILLER_14_175
*412 FILLER_14_185
*413 FILLER_14_193
*414 FILLER_14_197
*415 FILLER_14_209
*416 FILLER_14_221
*417 FILLER_14_233
*418 FILLER_14_245
*419 FILLER_14_251
*420 FILLER_14_253
*421 FILLER_14_26
*422 FILLER_14_265
*423 FILLER_14_277
*424 FILLER_14_289
*425 FILLER_14_29
*426 FILLER_14_297
*427 FILLER_14_3
*428 FILLER_14_41
*429 FILLER_14_64
*430 FILLER_14_81
*431 FILLER_14_85
*432 FILLER_14_92
*433 FILLER_15_111
*434 FILLER_15_113
*435 FILLER_15_127
*436 FILLER_15_138
*437 FILLER_15_150
*438 FILLER_15_162
*439 FILLER_15_169
*440 FILLER_15_181
*441 FILLER_15_193
*442 FILLER_15_205
*443 FILLER_15_217
*444 FILLER_15_223
*445 FILLER_15_225
*446 FILLER_15_237
*447 FILLER_15_249
*448 FILLER_15_26
*449 FILLER_15_261
*450 FILLER_15_273
*451 FILLER_15_279
*452 FILLER_15_281
*453 FILLER_15_293
*454 FILLER_15_3
*455 FILLER_15_30
*456 FILLER_15_54
*457 FILLER_15_57
*458 FILLER_15_69
*459 FILLER_15_80
*460 FILLER_15_84
*461 FILLER_15_9
*462 FILLER_15_90
*463 FILLER_15_99
*464 FILLER_16_100
*465 FILLER_16_108
*466 FILLER_16_120
*467 FILLER_16_132
*468 FILLER_16_141
*469 FILLER_16_153
*470 FILLER_16_168
*471 FILLER_16_180
*472 FILLER_16_192
*473 FILLER_16_197
*474 FILLER_16_209
*475 FILLER_16_221
*476 FILLER_16_233
*477 FILLER_16_245
*478 FILLER_16_251
*479 FILLER_16_253
*480 FILLER_16_26
*481 FILLER_16_265
*482 FILLER_16_277
*483 FILLER_16_289
*484 FILLER_16_29
*485 FILLER_16_297
*486 FILLER_16_3
*487 FILLER_16_34
*488 FILLER_16_46
*489 FILLER_16_70
*490 FILLER_16_78
*491 FILLER_16_82
*492 FILLER_16_85
*493 FILLER_16_91
*494 FILLER_17_101
*495 FILLER_17_109
*496 FILLER_17_113
*497 FILLER_17_118
*498 FILLER_17_130
*499 FILLER_17_142
*500 FILLER_17_149
*501 FILLER_17_161
*502 FILLER_17_167
*503 FILLER_17_169
*504 FILLER_17_181
*505 FILLER_17_193
*506 FILLER_17_205
*507 FILLER_17_217
*508 FILLER_17_223
*509 FILLER_17_225
*510 FILLER_17_237
*511 FILLER_17_249
*512 FILLER_17_25
*513 FILLER_17_261
*514 FILLER_17_273
*515 FILLER_17_279
*516 FILLER_17_281
*517 FILLER_17_293
*518 FILLER_17_3
*519 FILLER_17_33
*520 FILLER_17_54
*521 FILLER_17_57
*522 FILLER_17_62
*523 FILLER_17_70
*524 FILLER_17_80
*525 FILLER_17_90
*526 FILLER_18_104
*527 FILLER_18_116
*528 FILLER_18_120
*529 FILLER_18_128
*530 FILLER_18_141
*531 FILLER_18_158
*532 FILLER_18_170
*533 FILLER_18_182
*534 FILLER_18_194
*535 FILLER_18_197
*536 FILLER_18_209
*537 FILLER_18_221
*538 FILLER_18_233
*539 FILLER_18_245
*540 FILLER_18_251
*541 FILLER_18_253
*542 FILLER_18_26
*543 FILLER_18_265
*544 FILLER_18_277
*545 FILLER_18_289
*546 FILLER_18_29
*547 FILLER_18_297
*548 FILLER_18_3
*549 FILLER_18_34
*550 FILLER_18_65
*551 FILLER_18_71
*552 FILLER_18_75
*553 FILLER_18_82
*554 FILLER_18_85
*555 FILLER_18_9
*556 FILLER_18_95
*557 FILLER_19_107
*558 FILLER_19_111
*559 FILLER_19_113
*560 FILLER_19_120
*561 FILLER_19_132
*562 FILLER_19_140
*563 FILLER_19_146
*564 FILLER_19_158
*565 FILLER_19_166
*566 FILLER_19_169
*567 FILLER_19_181
*568 FILLER_19_193
*569 FILLER_19_205
*570 FILLER_19_21
*571 FILLER_19_217
*572 FILLER_19_223
*573 FILLER_19_225
*574 FILLER_19_237
*575 FILLER_19_249
*576 FILLER_19_25
*577 FILLER_19_261
*578 FILLER_19_273
*579 FILLER_19_279
*580 FILLER_19_281
*581 FILLER_19_293
*582 FILLER_19_3
*583 FILLER_19_42
*584 FILLER_19_54
*585 FILLER_19_57
*586 FILLER_19_69
*587 FILLER_19_83
*588 FILLER_19_89
*589 FILLER_19_98
*590 FILLER_1_102
*591 FILLER_1_110
*592 FILLER_1_113
*593 FILLER_1_123
*594 FILLER_1_131
*595 FILLER_1_143
*596 FILLER_1_155
*597 FILLER_1_167
*598 FILLER_1_169
*599 FILLER_1_181
*600 FILLER_1_193
*601 FILLER_1_204
*602 FILLER_1_216
*603 FILLER_1_22
*604 FILLER_1_225
*605 FILLER_1_237
*606 FILLER_1_249
*607 FILLER_1_261
*608 FILLER_1_273
*609 FILLER_1_279
*610 FILLER_1_281
*611 FILLER_1_293
*612 FILLER_1_3
*613 FILLER_1_49
*614 FILLER_1_55
*615 FILLER_1_57
*616 FILLER_1_75
*617 FILLER_1_79
*618 FILLER_1_83
*619 FILLER_1_90
*620 FILLER_20_103
*621 FILLER_20_110
*622 FILLER_20_125
*623 FILLER_20_137
*624 FILLER_20_141
*625 FILLER_20_153
*626 FILLER_20_165
*627 FILLER_20_177
*628 FILLER_20_189
*629 FILLER_20_195
*630 FILLER_20_197
*631 FILLER_20_209
*632 FILLER_20_21
*633 FILLER_20_221
*634 FILLER_20_233
*635 FILLER_20_245
*636 FILLER_20_251
*637 FILLER_20_253
*638 FILLER_20_265
*639 FILLER_20_27
*640 FILLER_20_277
*641 FILLER_20_289
*642 FILLER_20_29
*643 FILLER_20_297
*644 FILLER_20_3
*645 FILLER_20_41
*646 FILLER_20_45
*647 FILLER_20_69
*648 FILLER_20_82
*649 FILLER_20_85
*650 FILLER_20_91
*651 FILLER_20_95
*652 FILLER_21_110
*653 FILLER_21_113
*654 FILLER_21_120
*655 FILLER_21_132
*656 FILLER_21_140
*657 FILLER_21_149
*658 FILLER_21_161
*659 FILLER_21_167
*660 FILLER_21_169
*661 FILLER_21_181
*662 FILLER_21_19
*663 FILLER_21_190
*664 FILLER_21_202
*665 FILLER_21_214
*666 FILLER_21_222
*667 FILLER_21_225
*668 FILLER_21_237
*669 FILLER_21_249
*670 FILLER_21_261
*671 FILLER_21_273
*672 FILLER_21_279
*673 FILLER_21_281
*674 FILLER_21_293
*675 FILLER_21_3
*676 FILLER_21_39
*677 FILLER_21_52
*678 FILLER_21_57
*679 FILLER_21_65
*680 FILLER_21_71
*681 FILLER_21_78
*682 FILLER_21_85
*683 FILLER_21_9
*684 FILLER_21_93
*685 FILLER_21_98
*686 FILLER_22_105
*687 FILLER_22_116
*688 FILLER_22_128
*689 FILLER_22_141
*690 FILLER_22_153
*691 FILLER_22_165
*692 FILLER_22_177
*693 FILLER_22_189
*694 FILLER_22_195
*695 FILLER_22_197
*696 FILLER_22_209
*697 FILLER_22_21
*698 FILLER_22_221
*699 FILLER_22_233
*700 FILLER_22_245
*701 FILLER_22_251
*702 FILLER_22_253
*703 FILLER_22_265
*704 FILLER_22_27
*705 FILLER_22_277
*706 FILLER_22_289
*707 FILLER_22_29
*708 FILLER_22_297
*709 FILLER_22_3
*710 FILLER_22_40
*711 FILLER_22_52
*712 FILLER_22_64
*713 FILLER_22_76
*714 FILLER_22_85
*715 FILLER_22_91
*716 FILLER_22_98
*717 FILLER_23_101
*718 FILLER_23_107
*719 FILLER_23_111
*720 FILLER_23_113
*721 FILLER_23_125
*722 FILLER_23_137
*723 FILLER_23_149
*724 FILLER_23_161
*725 FILLER_23_167
*726 FILLER_23_169
*727 FILLER_23_18
*728 FILLER_23_181
*729 FILLER_23_193
*730 FILLER_23_205
*731 FILLER_23_217
*732 FILLER_23_223
*733 FILLER_23_225
*734 FILLER_23_237
*735 FILLER_23_249
*736 FILLER_23_26
*737 FILLER_23_261
*738 FILLER_23_273
*739 FILLER_23_279
*740 FILLER_23_281
*741 FILLER_23_293
*742 FILLER_23_3
*743 FILLER_23_36
*744 FILLER_23_43
*745 FILLER_23_55
*746 FILLER_23_57
*747 FILLER_23_65
*748 FILLER_23_71
*749 FILLER_23_78
*750 FILLER_23_89
*751 FILLER_24_105
*752 FILLER_24_11
*753 FILLER_24_115
*754 FILLER_24_121
*755 FILLER_24_127
*756 FILLER_24_139
*757 FILLER_24_141
*758 FILLER_24_153
*759 FILLER_24_165
*760 FILLER_24_177
*761 FILLER_24_189
*762 FILLER_24_19
*763 FILLER_24_195
*764 FILLER_24_197
*765 FILLER_24_209
*766 FILLER_24_221
*767 FILLER_24_233
*768 FILLER_24_24
*769 FILLER_24_245
*770 FILLER_24_251
*771 FILLER_24_253
*772 FILLER_24_265
*773 FILLER_24_277
*774 FILLER_24_289
*775 FILLER_24_29
*776 FILLER_24_297
*777 FILLER_24_3
*778 FILLER_24_40
*779 FILLER_24_47
*780 FILLER_24_51
*781 FILLER_24_57
*782 FILLER_24_69
*783 FILLER_24_7
*784 FILLER_24_75
*785 FILLER_24_79
*786 FILLER_24_83
*787 FILLER_24_85
*788 FILLER_24_97
*789 FILLER_25_109
*790 FILLER_25_113
*791 FILLER_25_125
*792 FILLER_25_137
*793 FILLER_25_149
*794 FILLER_25_161
*795 FILLER_25_167
*796 FILLER_25_169
*797 FILLER_25_181
*798 FILLER_25_193
*799 FILLER_25_205
*800 FILLER_25_21
*801 FILLER_25_217
*802 FILLER_25_223
*803 FILLER_25_225
*804 FILLER_25_237
*805 FILLER_25_249
*806 FILLER_25_261
*807 FILLER_25_273
*808 FILLER_25_279
*809 FILLER_25_281
*810 FILLER_25_293
*811 FILLER_25_3
*812 FILLER_25_33
*813 FILLER_25_44
*814 FILLER_25_51
*815 FILLER_25_55
*816 FILLER_25_57
*817 FILLER_25_63
*818 FILLER_25_77
*819 FILLER_25_87
*820 FILLER_25_9
*821 FILLER_25_98
*822 FILLER_26_101
*823 FILLER_26_108
*824 FILLER_26_120
*825 FILLER_26_132
*826 FILLER_26_141
*827 FILLER_26_153
*828 FILLER_26_165
*829 FILLER_26_177
*830 FILLER_26_189
*831 FILLER_26_195
*832 FILLER_26_197
*833 FILLER_26_20
*834 FILLER_26_209
*835 FILLER_26_221
*836 FILLER_26_233
*837 FILLER_26_245
*838 FILLER_26_251
*839 FILLER_26_253
*840 FILLER_26_265
*841 FILLER_26_277
*842 FILLER_26_289
*843 FILLER_26_29
*844 FILLER_26_297
*845 FILLER_26_3
*846 FILLER_26_41
*847 FILLER_26_46
*848 FILLER_26_58
*849 FILLER_26_70
*850 FILLER_26_8
*851 FILLER_26_82
*852 FILLER_26_85
*853 FILLER_26_97
*854 FILLER_27_101
*855 FILLER_27_109
*856 FILLER_27_113
*857 FILLER_27_118
*858 FILLER_27_130
*859 FILLER_27_142
*860 FILLER_27_15
*861 FILLER_27_154
*862 FILLER_27_166
*863 FILLER_27_169
*864 FILLER_27_181
*865 FILLER_27_193
*866 FILLER_27_205
*867 FILLER_27_217
*868 FILLER_27_223
*869 FILLER_27_225
*870 FILLER_27_237
*871 FILLER_27_249
*872 FILLER_27_261
*873 FILLER_27_27
*874 FILLER_27_273
*875 FILLER_27_279
*876 FILLER_27_281
*877 FILLER_27_293
*878 FILLER_27_3
*879 FILLER_27_39
*880 FILLER_27_54
*881 FILLER_27_57
*882 FILLER_27_69
*883 FILLER_27_8
*884 FILLER_27_81
*885 FILLER_27_93
*886 FILLER_28_109
*887 FILLER_28_121
*888 FILLER_28_133
*889 FILLER_28_139
*890 FILLER_28_141
*891 FILLER_28_15
*892 FILLER_28_153
*893 FILLER_28_165
*894 FILLER_28_177
*895 FILLER_28_189
*896 FILLER_28_195
*897 FILLER_28_197
*898 FILLER_28_209
*899 FILLER_28_221
*900 FILLER_28_233
*901 FILLER_28_245
*902 FILLER_28_251
*903 FILLER_28_253
*904 FILLER_28_265
*905 FILLER_28_27
*906 FILLER_28_277
*907 FILLER_28_289
*908 FILLER_28_29
*909 FILLER_28_297
*910 FILLER_28_3
*911 FILLER_28_41
*912 FILLER_28_53
*913 FILLER_28_65
*914 FILLER_28_77
*915 FILLER_28_83
*916 FILLER_28_85
*917 FILLER_28_97
*918 FILLER_29_103
*919 FILLER_29_111
*920 FILLER_29_113
*921 FILLER_29_125
*922 FILLER_29_137
*923 FILLER_29_149
*924 FILLER_29_15
*925 FILLER_29_161
*926 FILLER_29_167
*927 FILLER_29_169
*928 FILLER_29_181
*929 FILLER_29_193
*930 FILLER_29_205
*931 FILLER_29_217
*932 FILLER_29_223
*933 FILLER_29_225
*934 FILLER_29_237
*935 FILLER_29_249
*936 FILLER_29_261
*937 FILLER_29_27
*938 FILLER_29_273
*939 FILLER_29_279
*940 FILLER_29_281
*941 FILLER_29_293
*942 FILLER_29_3
*943 FILLER_29_39
*944 FILLER_29_47
*945 FILLER_29_54
*946 FILLER_29_57
*947 FILLER_29_68
*948 FILLER_29_79
*949 FILLER_29_83
*950 FILLER_29_91
*951 FILLER_2_111
*952 FILLER_2_116
*953 FILLER_2_128
*954 FILLER_2_141
*955 FILLER_2_149
*956 FILLER_2_159
*957 FILLER_2_171
*958 FILLER_2_183
*959 FILLER_2_195
*960 FILLER_2_197
*961 FILLER_2_209
*962 FILLER_2_221
*963 FILLER_2_233
*964 FILLER_2_24
*965 FILLER_2_245
*966 FILLER_2_251
*967 FILLER_2_253
*968 FILLER_2_265
*969 FILLER_2_277
*970 FILLER_2_289
*971 FILLER_2_29
*972 FILLER_2_297
*973 FILLER_2_3
*974 FILLER_2_37
*975 FILLER_2_59
*976 FILLER_2_71
*977 FILLER_2_82
*978 FILLER_2_85
*979 FILLER_2_99
*980 FILLER_30_102
*981 FILLER_30_11
*982 FILLER_30_114
*983 FILLER_30_126
*984 FILLER_30_138
*985 FILLER_30_141
*986 FILLER_30_153
*987 FILLER_30_165
*988 FILLER_30_177
*989 FILLER_30_189
*990 FILLER_30_195
*991 FILLER_30_197
*992 FILLER_30_209
*993 FILLER_30_221
*994 FILLER_30_23
*995 FILLER_30_233
*996 FILLER_30_245
*997 FILLER_30_251
*998 FILLER_30_253
*999 FILLER_30_265
*1000 FILLER_30_27
*1001 FILLER_30_277
*1002 FILLER_30_289
*1003 FILLER_30_29
*1004 FILLER_30_297
*1005 FILLER_30_3
*1006 FILLER_30_41
*1007 FILLER_30_48
*1008 FILLER_30_60
*1009 FILLER_30_7
*1010 FILLER_30_72
*1011 FILLER_30_85
*1012 FILLER_31_109
*1013 FILLER_31_113
*1014 FILLER_31_125
*1015 FILLER_31_137
*1016 FILLER_31_149
*1017 FILLER_31_15
*1018 FILLER_31_161
*1019 FILLER_31_167
*1020 FILLER_31_169
*1021 FILLER_31_181
*1022 FILLER_31_193
*1023 FILLER_31_205
*1024 FILLER_31_217
*1025 FILLER_31_223
*1026 FILLER_31_225
*1027 FILLER_31_237
*1028 FILLER_31_249
*1029 FILLER_31_261
*1030 FILLER_31_27
*1031 FILLER_31_273
*1032 FILLER_31_279
*1033 FILLER_31_281
*1034 FILLER_31_293
*1035 FILLER_31_3
*1036 FILLER_31_39
*1037 FILLER_31_51
*1038 FILLER_31_55
*1039 FILLER_31_57
*1040 FILLER_31_65
*1041 FILLER_31_73
*1042 FILLER_31_85
*1043 FILLER_31_97
*1044 FILLER_32_109
*1045 FILLER_32_121
*1046 FILLER_32_133
*1047 FILLER_32_139
*1048 FILLER_32_141
*1049 FILLER_32_15
*1050 FILLER_32_153
*1051 FILLER_32_165
*1052 FILLER_32_177
*1053 FILLER_32_189
*1054 FILLER_32_195
*1055 FILLER_32_197
*1056 FILLER_32_209
*1057 FILLER_32_221
*1058 FILLER_32_233
*1059 FILLER_32_245
*1060 FILLER_32_251
*1061 FILLER_32_253
*1062 FILLER_32_265
*1063 FILLER_32_27
*1064 FILLER_32_277
*1065 FILLER_32_289
*1066 FILLER_32_29
*1067 FILLER_32_297
*1068 FILLER_32_3
*1069 FILLER_32_41
*1070 FILLER_32_53
*1071 FILLER_32_65
*1072 FILLER_32_77
*1073 FILLER_32_83
*1074 FILLER_32_85
*1075 FILLER_32_97
*1076 FILLER_33_108
*1077 FILLER_33_113
*1078 FILLER_33_125
*1079 FILLER_33_137
*1080 FILLER_33_14
*1081 FILLER_33_149
*1082 FILLER_33_161
*1083 FILLER_33_167
*1084 FILLER_33_169
*1085 FILLER_33_181
*1086 FILLER_33_193
*1087 FILLER_33_205
*1088 FILLER_33_217
*1089 FILLER_33_223
*1090 FILLER_33_225
*1091 FILLER_33_237
*1092 FILLER_33_249
*1093 FILLER_33_26
*1094 FILLER_33_261
*1095 FILLER_33_273
*1096 FILLER_33_279
*1097 FILLER_33_281
*1098 FILLER_33_293
*1099 FILLER_33_3
*1100 FILLER_33_38
*1101 FILLER_33_50
*1102 FILLER_33_57
*1103 FILLER_33_69
*1104 FILLER_33_77
*1105 FILLER_33_84
*1106 FILLER_33_96
*1107 FILLER_34_109
*1108 FILLER_34_121
*1109 FILLER_34_133
*1110 FILLER_34_139
*1111 FILLER_34_141
*1112 FILLER_34_15
*1113 FILLER_34_153
*1114 FILLER_34_165
*1115 FILLER_34_177
*1116 FILLER_34_189
*1117 FILLER_34_195
*1118 FILLER_34_197
*1119 FILLER_34_209
*1120 FILLER_34_221
*1121 FILLER_34_233
*1122 FILLER_34_245
*1123 FILLER_34_251
*1124 FILLER_34_253
*1125 FILLER_34_265
*1126 FILLER_34_27
*1127 FILLER_34_277
*1128 FILLER_34_289
*1129 FILLER_34_29
*1130 FILLER_34_297
*1131 FILLER_34_3
*1132 FILLER_34_41
*1133 FILLER_34_53
*1134 FILLER_34_65
*1135 FILLER_34_77
*1136 FILLER_34_83
*1137 FILLER_34_85
*1138 FILLER_34_97
*1139 FILLER_35_105
*1140 FILLER_35_111
*1141 FILLER_35_113
*1142 FILLER_35_125
*1143 FILLER_35_137
*1144 FILLER_35_149
*1145 FILLER_35_15
*1146 FILLER_35_161
*1147 FILLER_35_167
*1148 FILLER_35_169
*1149 FILLER_35_181
*1150 FILLER_35_193
*1151 FILLER_35_205
*1152 FILLER_35_217
*1153 FILLER_35_223
*1154 FILLER_35_225
*1155 FILLER_35_237
*1156 FILLER_35_249
*1157 FILLER_35_261
*1158 FILLER_35_27
*1159 FILLER_35_273
*1160 FILLER_35_279
*1161 FILLER_35_281
*1162 FILLER_35_293
*1163 FILLER_35_3
*1164 FILLER_35_39
*1165 FILLER_35_51
*1166 FILLER_35_55
*1167 FILLER_35_57
*1168 FILLER_35_69
*1169 FILLER_35_81
*1170 FILLER_35_93
*1171 FILLER_36_109
*1172 FILLER_36_121
*1173 FILLER_36_133
*1174 FILLER_36_139
*1175 FILLER_36_141
*1176 FILLER_36_153
*1177 FILLER_36_165
*1178 FILLER_36_177
*1179 FILLER_36_189
*1180 FILLER_36_19
*1181 FILLER_36_195
*1182 FILLER_36_197
*1183 FILLER_36_209
*1184 FILLER_36_221
*1185 FILLER_36_233
*1186 FILLER_36_245
*1187 FILLER_36_251
*1188 FILLER_36_253
*1189 FILLER_36_265
*1190 FILLER_36_27
*1191 FILLER_36_277
*1192 FILLER_36_289
*1193 FILLER_36_29
*1194 FILLER_36_297
*1195 FILLER_36_3
*1196 FILLER_36_41
*1197 FILLER_36_53
*1198 FILLER_36_65
*1199 FILLER_36_77
*1200 FILLER_36_83
*1201 FILLER_36_85
*1202 FILLER_36_9
*1203 FILLER_36_97
*1204 FILLER_37_105
*1205 FILLER_37_111
*1206 FILLER_37_113
*1207 FILLER_37_125
*1208 FILLER_37_137
*1209 FILLER_37_149
*1210 FILLER_37_15
*1211 FILLER_37_161
*1212 FILLER_37_167
*1213 FILLER_37_169
*1214 FILLER_37_181
*1215 FILLER_37_193
*1216 FILLER_37_205
*1217 FILLER_37_217
*1218 FILLER_37_223
*1219 FILLER_37_225
*1220 FILLER_37_237
*1221 FILLER_37_249
*1222 FILLER_37_261
*1223 FILLER_37_27
*1224 FILLER_37_273
*1225 FILLER_37_279
*1226 FILLER_37_281
*1227 FILLER_37_293
*1228 FILLER_37_3
*1229 FILLER_37_39
*1230 FILLER_37_51
*1231 FILLER_37_55
*1232 FILLER_37_57
*1233 FILLER_37_69
*1234 FILLER_37_81
*1235 FILLER_37_93
*1236 FILLER_38_109
*1237 FILLER_38_121
*1238 FILLER_38_133
*1239 FILLER_38_139
*1240 FILLER_38_141
*1241 FILLER_38_15
*1242 FILLER_38_153
*1243 FILLER_38_165
*1244 FILLER_38_177
*1245 FILLER_38_189
*1246 FILLER_38_195
*1247 FILLER_38_197
*1248 FILLER_38_209
*1249 FILLER_38_221
*1250 FILLER_38_233
*1251 FILLER_38_245
*1252 FILLER_38_251
*1253 FILLER_38_253
*1254 FILLER_38_265
*1255 FILLER_38_27
*1256 FILLER_38_277
*1257 FILLER_38_289
*1258 FILLER_38_29
*1259 FILLER_38_297
*1260 FILLER_38_3
*1261 FILLER_38_41
*1262 FILLER_38_53
*1263 FILLER_38_65
*1264 FILLER_38_77
*1265 FILLER_38_83
*1266 FILLER_38_85
*1267 FILLER_38_97
*1268 FILLER_39_105
*1269 FILLER_39_111
*1270 FILLER_39_113
*1271 FILLER_39_125
*1272 FILLER_39_137
*1273 FILLER_39_149
*1274 FILLER_39_15
*1275 FILLER_39_161
*1276 FILLER_39_167
*1277 FILLER_39_169
*1278 FILLER_39_181
*1279 FILLER_39_193
*1280 FILLER_39_205
*1281 FILLER_39_217
*1282 FILLER_39_223
*1283 FILLER_39_225
*1284 FILLER_39_237
*1285 FILLER_39_249
*1286 FILLER_39_261
*1287 FILLER_39_27
*1288 FILLER_39_273
*1289 FILLER_39_279
*1290 FILLER_39_281
*1291 FILLER_39_293
*1292 FILLER_39_3
*1293 FILLER_39_39
*1294 FILLER_39_51
*1295 FILLER_39_55
*1296 FILLER_39_57
*1297 FILLER_39_69
*1298 FILLER_39_81
*1299 FILLER_39_93
*1300 FILLER_3_102
*1301 FILLER_3_106
*1302 FILLER_3_110
*1303 FILLER_3_113
*1304 FILLER_3_119
*1305 FILLER_3_123
*1306 FILLER_3_139
*1307 FILLER_3_149
*1308 FILLER_3_157
*1309 FILLER_3_164
*1310 FILLER_3_169
*1311 FILLER_3_178
*1312 FILLER_3_184
*1313 FILLER_3_189
*1314 FILLER_3_201
*1315 FILLER_3_213
*1316 FILLER_3_221
*1317 FILLER_3_225
*1318 FILLER_3_237
*1319 FILLER_3_249
*1320 FILLER_3_261
*1321 FILLER_3_273
*1322 FILLER_3_279
*1323 FILLER_3_281
*1324 FILLER_3_293
*1325 FILLER_3_3
*1326 FILLER_3_30
*1327 FILLER_3_54
*1328 FILLER_3_57
*1329 FILLER_3_82
*1330 FILLER_3_89
*1331 FILLER_3_9
*1332 FILLER_40_109
*1333 FILLER_40_121
*1334 FILLER_40_133
*1335 FILLER_40_139
*1336 FILLER_40_141
*1337 FILLER_40_15
*1338 FILLER_40_153
*1339 FILLER_40_165
*1340 FILLER_40_177
*1341 FILLER_40_189
*1342 FILLER_40_195
*1343 FILLER_40_197
*1344 FILLER_40_209
*1345 FILLER_40_221
*1346 FILLER_40_233
*1347 FILLER_40_245
*1348 FILLER_40_251
*1349 FILLER_40_253
*1350 FILLER_40_265
*1351 FILLER_40_27
*1352 FILLER_40_277
*1353 FILLER_40_289
*1354 FILLER_40_29
*1355 FILLER_40_297
*1356 FILLER_40_3
*1357 FILLER_40_41
*1358 FILLER_40_53
*1359 FILLER_40_59
*1360 FILLER_40_71
*1361 FILLER_40_83
*1362 FILLER_40_85
*1363 FILLER_40_97
*1364 FILLER_41_105
*1365 FILLER_41_111
*1366 FILLER_41_113
*1367 FILLER_41_125
*1368 FILLER_41_137
*1369 FILLER_41_149
*1370 FILLER_41_15
*1371 FILLER_41_161
*1372 FILLER_41_167
*1373 FILLER_41_169
*1374 FILLER_41_181
*1375 FILLER_41_193
*1376 FILLER_41_205
*1377 FILLER_41_217
*1378 FILLER_41_223
*1379 FILLER_41_225
*1380 FILLER_41_237
*1381 FILLER_41_249
*1382 FILLER_41_261
*1383 FILLER_41_27
*1384 FILLER_41_273
*1385 FILLER_41_279
*1386 FILLER_41_281
*1387 FILLER_41_293
*1388 FILLER_41_3
*1389 FILLER_41_39
*1390 FILLER_41_51
*1391 FILLER_41_55
*1392 FILLER_41_57
*1393 FILLER_41_69
*1394 FILLER_41_81
*1395 FILLER_41_93
*1396 FILLER_42_109
*1397 FILLER_42_121
*1398 FILLER_42_133
*1399 FILLER_42_139
*1400 FILLER_42_141
*1401 FILLER_42_15
*1402 FILLER_42_153
*1403 FILLER_42_165
*1404 FILLER_42_177
*1405 FILLER_42_189
*1406 FILLER_42_195
*1407 FILLER_42_197
*1408 FILLER_42_209
*1409 FILLER_42_221
*1410 FILLER_42_233
*1411 FILLER_42_245
*1412 FILLER_42_251
*1413 FILLER_42_253
*1414 FILLER_42_265
*1415 FILLER_42_27
*1416 FILLER_42_277
*1417 FILLER_42_289
*1418 FILLER_42_29
*1419 FILLER_42_297
*1420 FILLER_42_3
*1421 FILLER_42_41
*1422 FILLER_42_53
*1423 FILLER_42_65
*1424 FILLER_42_77
*1425 FILLER_42_83
*1426 FILLER_42_85
*1427 FILLER_42_97
*1428 FILLER_43_105
*1429 FILLER_43_111
*1430 FILLER_43_113
*1431 FILLER_43_125
*1432 FILLER_43_137
*1433 FILLER_43_149
*1434 FILLER_43_15
*1435 FILLER_43_161
*1436 FILLER_43_167
*1437 FILLER_43_169
*1438 FILLER_43_181
*1439 FILLER_43_193
*1440 FILLER_43_205
*1441 FILLER_43_217
*1442 FILLER_43_223
*1443 FILLER_43_225
*1444 FILLER_43_237
*1445 FILLER_43_249
*1446 FILLER_43_261
*1447 FILLER_43_27
*1448 FILLER_43_273
*1449 FILLER_43_279
*1450 FILLER_43_281
*1451 FILLER_43_293
*1452 FILLER_43_3
*1453 FILLER_43_39
*1454 FILLER_43_51
*1455 FILLER_43_55
*1456 FILLER_43_57
*1457 FILLER_43_69
*1458 FILLER_43_81
*1459 FILLER_43_93
*1460 FILLER_44_109
*1461 FILLER_44_121
*1462 FILLER_44_133
*1463 FILLER_44_139
*1464 FILLER_44_141
*1465 FILLER_44_15
*1466 FILLER_44_153
*1467 FILLER_44_165
*1468 FILLER_44_177
*1469 FILLER_44_189
*1470 FILLER_44_195
*1471 FILLER_44_197
*1472 FILLER_44_209
*1473 FILLER_44_221
*1474 FILLER_44_233
*1475 FILLER_44_245
*1476 FILLER_44_251
*1477 FILLER_44_253
*1478 FILLER_44_265
*1479 FILLER_44_27
*1480 FILLER_44_277
*1481 FILLER_44_289
*1482 FILLER_44_29
*1483 FILLER_44_297
*1484 FILLER_44_3
*1485 FILLER_44_41
*1486 FILLER_44_53
*1487 FILLER_44_65
*1488 FILLER_44_77
*1489 FILLER_44_83
*1490 FILLER_44_85
*1491 FILLER_44_97
*1492 FILLER_45_105
*1493 FILLER_45_111
*1494 FILLER_45_113
*1495 FILLER_45_125
*1496 FILLER_45_137
*1497 FILLER_45_149
*1498 FILLER_45_15
*1499 FILLER_45_161
*1500 FILLER_45_167
*1501 FILLER_45_169
*1502 FILLER_45_181
*1503 FILLER_45_193
*1504 FILLER_45_205
*1505 FILLER_45_217
*1506 FILLER_45_223
*1507 FILLER_45_225
*1508 FILLER_45_237
*1509 FILLER_45_249
*1510 FILLER_45_261
*1511 FILLER_45_27
*1512 FILLER_45_273
*1513 FILLER_45_279
*1514 FILLER_45_281
*1515 FILLER_45_293
*1516 FILLER_45_3
*1517 FILLER_45_39
*1518 FILLER_45_51
*1519 FILLER_45_55
*1520 FILLER_45_57
*1521 FILLER_45_69
*1522 FILLER_45_81
*1523 FILLER_45_93
*1524 FILLER_46_109
*1525 FILLER_46_121
*1526 FILLER_46_133
*1527 FILLER_46_139
*1528 FILLER_46_141
*1529 FILLER_46_15
*1530 FILLER_46_153
*1531 FILLER_46_165
*1532 FILLER_46_177
*1533 FILLER_46_189
*1534 FILLER_46_195
*1535 FILLER_46_197
*1536 FILLER_46_209
*1537 FILLER_46_221
*1538 FILLER_46_233
*1539 FILLER_46_245
*1540 FILLER_46_251
*1541 FILLER_46_253
*1542 FILLER_46_265
*1543 FILLER_46_27
*1544 FILLER_46_277
*1545 FILLER_46_289
*1546 FILLER_46_29
*1547 FILLER_46_297
*1548 FILLER_46_3
*1549 FILLER_46_41
*1550 FILLER_46_53
*1551 FILLER_46_65
*1552 FILLER_46_77
*1553 FILLER_46_83
*1554 FILLER_46_85
*1555 FILLER_46_97
*1556 FILLER_47_105
*1557 FILLER_47_111
*1558 FILLER_47_113
*1559 FILLER_47_125
*1560 FILLER_47_137
*1561 FILLER_47_149
*1562 FILLER_47_15
*1563 FILLER_47_161
*1564 FILLER_47_167
*1565 FILLER_47_169
*1566 FILLER_47_181
*1567 FILLER_47_193
*1568 FILLER_47_205
*1569 FILLER_47_217
*1570 FILLER_47_223
*1571 FILLER_47_225
*1572 FILLER_47_237
*1573 FILLER_47_249
*1574 FILLER_47_261
*1575 FILLER_47_27
*1576 FILLER_47_273
*1577 FILLER_47_279
*1578 FILLER_47_281
*1579 FILLER_47_293
*1580 FILLER_47_3
*1581 FILLER_47_39
*1582 FILLER_47_51
*1583 FILLER_47_55
*1584 FILLER_47_57
*1585 FILLER_47_69
*1586 FILLER_47_81
*1587 FILLER_47_93
*1588 FILLER_48_109
*1589 FILLER_48_121
*1590 FILLER_48_133
*1591 FILLER_48_139
*1592 FILLER_48_141
*1593 FILLER_48_15
*1594 FILLER_48_153
*1595 FILLER_48_165
*1596 FILLER_48_177
*1597 FILLER_48_189
*1598 FILLER_48_195