*SPEF "ieee 1481-1999"
*DESIGN "BenAtUvu_combo"
*DATE "11:11:11 Fri 11 11, 1111"
*VENDOR "OpenRCX"
*PROGRAM "Parallel Extraction"
*VERSION "1.0"
*DESIGN_FLOW "NAME_SCOPE LOCAL" "PIN_CAP NONE"
*DIVIDER /
*DELIMITER :
*BUS_DELIMITER []
*T_UNIT 1 NS
*C_UNIT 1 PF
*R_UNIT 1 OHM
*L_UNIT 1 HENRY

*NAME_MAP
*1 io_in[0]
*2 io_in[1]
*3 io_in[2]
*4 io_in[3]
*5 io_in[4]
*6 io_in[5]
*7 io_in[6]
*8 io_in[7]
*9 io_out[0]
*10 io_out[1]
*11 io_out[2]
*12 io_out[3]
*13 io_out[4]
*14 net4
*15 net5
*16 net6
*19 Unlock
*20 _00_
*21 _01_
*22 _02_
*23 _03_
*24 _04_
*25 _05_
*26 _06_
*27 _07_
*28 _08_
*29 _09_
*30 _10_
*31 _11_
*32 _12_
*33 _13_
*34 _14_
*35 _15_
*36 _16_
*37 _17_
*38 _18_
*39 _19_
*40 _20_
*41 _21_
*42 _22_
*43 _23_
*44 _24_
*45 _25_
*46 _26_
*47 keys\[0\]
*48 keys\[1\]
*49 keys\[2\]
*50 keys\[3\]
*51 net1
*52 net2
*53 net3
*54 BenAtUvu_combo_4
*55 BenAtUvu_combo_5
*56 BenAtUvu_combo_6
*57 FILLER_0_109
*58 FILLER_0_113
*59 FILLER_0_125
*60 FILLER_0_137
*61 FILLER_0_141
*62 FILLER_0_15
*63 FILLER_0_153
*64 FILLER_0_165
*65 FILLER_0_169
*66 FILLER_0_181
*67 FILLER_0_193
*68 FILLER_0_197
*69 FILLER_0_209
*70 FILLER_0_221
*71 FILLER_0_225
*72 FILLER_0_237
*73 FILLER_0_249
*74 FILLER_0_253
*75 FILLER_0_265
*76 FILLER_0_27
*77 FILLER_0_277
*78 FILLER_0_281
*79 FILLER_0_29
*80 FILLER_0_293
*81 FILLER_0_3
*82 FILLER_0_41
*83 FILLER_0_53
*84 FILLER_0_57
*85 FILLER_0_69
*86 FILLER_0_81
*87 FILLER_0_85
*88 FILLER_0_97
*89 FILLER_10_109
*90 FILLER_10_121
*91 FILLER_10_133
*92 FILLER_10_139
*93 FILLER_10_141
*94 FILLER_10_15
*95 FILLER_10_153
*96 FILLER_10_165
*97 FILLER_10_177
*98 FILLER_10_189
*99 FILLER_10_195
*100 FILLER_10_197
*101 FILLER_10_209
*102 FILLER_10_221
*103 FILLER_10_233
*104 FILLER_10_245
*105 FILLER_10_251
*106 FILLER_10_253
*107 FILLER_10_265
*108 FILLER_10_27
*109 FILLER_10_277
*110 FILLER_10_289
*111 FILLER_10_29
*112 FILLER_10_297
*113 FILLER_10_3
*114 FILLER_10_41
*115 FILLER_10_53
*116 FILLER_10_65
*117 FILLER_10_77
*118 FILLER_10_83
*119 FILLER_10_85
*120 FILLER_10_97
*121 FILLER_11_105
*122 FILLER_11_111
*123 FILLER_11_113
*124 FILLER_11_125
*125 FILLER_11_137
*126 FILLER_11_149
*127 FILLER_11_15
*128 FILLER_11_161
*129 FILLER_11_167
*130 FILLER_11_169
*131 FILLER_11_181
*132 FILLER_11_193
*133 FILLER_11_205
*134 FILLER_11_217
*135 FILLER_11_223
*136 FILLER_11_225
*137 FILLER_11_237
*138 FILLER_11_249
*139 FILLER_11_261
*140 FILLER_11_27
*141 FILLER_11_273
*142 FILLER_11_279
*143 FILLER_11_281
*144 FILLER_11_293
*145 FILLER_11_3
*146 FILLER_11_39
*147 FILLER_11_51
*148 FILLER_11_55
*149 FILLER_11_57
*150 FILLER_11_69
*151 FILLER_11_81
*152 FILLER_11_93
*153 FILLER_12_109
*154 FILLER_12_121
*155 FILLER_12_133
*156 FILLER_12_139
*157 FILLER_12_141
*158 FILLER_12_15
*159 FILLER_12_153
*160 FILLER_12_165
*161 FILLER_12_177
*162 FILLER_12_189
*163 FILLER_12_19
*164 FILLER_12_195
*165 FILLER_12_197
*166 FILLER_12_209
*167 FILLER_12_221
*168 FILLER_12_233
*169 FILLER_12_245
*170 FILLER_12_251
*171 FILLER_12_253
*172 FILLER_12_265
*173 FILLER_12_27
*174 FILLER_12_277
*175 FILLER_12_289
*176 FILLER_12_29
*177 FILLER_12_297
*178 FILLER_12_3
*179 FILLER_12_43
*180 FILLER_12_55
*181 FILLER_12_67
*182 FILLER_12_79
*183 FILLER_12_83
*184 FILLER_12_85
*185 FILLER_12_97
*186 FILLER_13_10
*187 FILLER_13_105
*188 FILLER_13_111
*189 FILLER_13_113
*190 FILLER_13_125
*191 FILLER_13_137
*192 FILLER_13_149
*193 FILLER_13_16
*194 FILLER_13_161
*195 FILLER_13_167
*196 FILLER_13_169
*197 FILLER_13_181
*198 FILLER_13_193
*199 FILLER_13_20
*200 FILLER_13_205
*201 FILLER_13_217
*202 FILLER_13_223
*203 FILLER_13_225
*204 FILLER_13_237
*205 FILLER_13_249
*206 FILLER_13_261
*207 FILLER_13_27
*208 FILLER_13_273
*209 FILLER_13_279
*210 FILLER_13_281
*211 FILLER_13_293
*212 FILLER_13_3
*213 FILLER_13_36
*214 FILLER_13_48
*215 FILLER_13_57
*216 FILLER_13_69
*217 FILLER_13_81
*218 FILLER_13_93
*219 FILLER_14_10
*220 FILLER_14_109
*221 FILLER_14_121
*222 FILLER_14_133
*223 FILLER_14_139
*224 FILLER_14_141
*225 FILLER_14_153
*226 FILLER_14_165
*227 FILLER_14_177
*228 FILLER_14_189
*229 FILLER_14_195
*230 FILLER_14_197
*231 FILLER_14_209
*232 FILLER_14_22
*233 FILLER_14_221
*234 FILLER_14_233
*235 FILLER_14_245
*236 FILLER_14_251
*237 FILLER_14_253
*238 FILLER_14_265
*239 FILLER_14_277
*240 FILLER_14_289
*241 FILLER_14_29
*242 FILLER_14_297
*243 FILLER_14_3
*244 FILLER_14_41
*245 FILLER_14_53
*246 FILLER_14_65
*247 FILLER_14_77
*248 FILLER_14_83
*249 FILLER_14_85
*250 FILLER_14_97
*251 FILLER_15_10
*252 FILLER_15_105
*253 FILLER_15_111
*254 FILLER_15_113
*255 FILLER_15_125
*256 FILLER_15_137
*257 FILLER_15_149
*258 FILLER_15_161
*259 FILLER_15_167
*260 FILLER_15_169
*261 FILLER_15_181
*262 FILLER_15_19
*263 FILLER_15_193
*264 FILLER_15_205
*265 FILLER_15_217
*266 FILLER_15_223
*267 FILLER_15_225
*268 FILLER_15_237
*269 FILLER_15_249
*270 FILLER_15_261
*271 FILLER_15_273
*272 FILLER_15_279
*273 FILLER_15_281
*274 FILLER_15_293
*275 FILLER_15_3
*276 FILLER_15_31
*277 FILLER_15_43
*278 FILLER_15_55
*279 FILLER_15_57
*280 FILLER_15_69
*281 FILLER_15_81
*282 FILLER_15_93
*283 FILLER_16_109
*284 FILLER_16_121
*285 FILLER_16_133
*286 FILLER_16_139
*287 FILLER_16_141
*288 FILLER_16_15
*289 FILLER_16_153
*290 FILLER_16_165
*291 FILLER_16_177
*292 FILLER_16_189
*293 FILLER_16_195
*294 FILLER_16_197
*295 FILLER_16_209
*296 FILLER_16_221
*297 FILLER_16_233
*298 FILLER_16_245
*299 FILLER_16_251
*300 FILLER_16_253
*301 FILLER_16_26
*302 FILLER_16_265
*303 FILLER_16_277
*304 FILLER_16_289
*305 FILLER_16_29
*306 FILLER_16_297
*307 FILLER_16_3
*308 FILLER_16_43
*309 FILLER_16_55
*310 FILLER_16_67
*311 FILLER_16_79
*312 FILLER_16_83
*313 FILLER_16_85
*314 FILLER_16_97
*315 FILLER_17_10
*316 FILLER_17_105
*317 FILLER_17_111
*318 FILLER_17_113
*319 FILLER_17_125
*320 FILLER_17_137
*321 FILLER_17_149
*322 FILLER_17_161
*323 FILLER_17_167
*324 FILLER_17_169
*325 FILLER_17_18
*326 FILLER_17_181
*327 FILLER_17_193
*328 FILLER_17_205
*329 FILLER_17_217
*330 FILLER_17_223
*331 FILLER_17_225
*332 FILLER_17_237
*333 FILLER_17_249
*334 FILLER_17_26
*335 FILLER_17_261
*336 FILLER_17_273
*337 FILLER_17_279
*338 FILLER_17_281
*339 FILLER_17_293
*340 FILLER_17_3
*341 FILLER_17_32
*342 FILLER_17_44
*343 FILLER_17_57
*344 FILLER_17_69
*345 FILLER_17_81
*346 FILLER_17_93
*347 FILLER_18_109
*348 FILLER_18_121
*349 FILLER_18_13
*350 FILLER_18_133
*351 FILLER_18_139
*352 FILLER_18_141
*353 FILLER_18_153
*354 FILLER_18_165
*355 FILLER_18_177
*356 FILLER_18_189
*357 FILLER_18_195
*358 FILLER_18_197
*359 FILLER_18_209
*360 FILLER_18_221
*361 FILLER_18_233
*362 FILLER_18_245
*363 FILLER_18_25
*364 FILLER_18_251
*365 FILLER_18_253
*366 FILLER_18_265
*367 FILLER_18_277
*368 FILLER_18_289
*369 FILLER_18_29
*370 FILLER_18_297
*371 FILLER_18_3
*372 FILLER_18_36
*373 FILLER_18_48
*374 FILLER_18_60
*375 FILLER_18_72
*376 FILLER_18_85
*377 FILLER_18_97
*378 FILLER_19_105
*379 FILLER_19_111
*380 FILLER_19_113
*381 FILLER_19_125
*382 FILLER_19_137
*383 FILLER_19_149
*384 FILLER_19_161
*385 FILLER_19_167
*386 FILLER_19_169
*387 FILLER_19_181
*388 FILLER_19_193
*389 FILLER_19_20
*390 FILLER_19_205
*391 FILLER_19_217
*392 FILLER_19_223
*393 FILLER_19_225
*394 FILLER_19_237
*395 FILLER_19_249
*396 FILLER_19_261
*397 FILLER_19_273
*398 FILLER_19_279
*399 FILLER_19_28
*400 FILLER_19_281
*401 FILLER_19_293
*402 FILLER_19_3
*403 FILLER_19_41
*404 FILLER_19_53
*405 FILLER_19_57
*406 FILLER_19_69
*407 FILLER_19_8
*408 FILLER_19_81
*409 FILLER_19_93
*410 FILLER_1_105
*411 FILLER_1_111
*412 FILLER_1_113
*413 FILLER_1_125
*414 FILLER_1_137
*415 FILLER_1_149
*416 FILLER_1_15
*417 FILLER_1_161
*418 FILLER_1_167
*419 FILLER_1_169
*420 FILLER_1_181
*421 FILLER_1_193
*422 FILLER_1_205
*423 FILLER_1_217
*424 FILLER_1_223
*425 FILLER_1_225
*426 FILLER_1_237
*427 FILLER_1_249
*428 FILLER_1_261
*429 FILLER_1_27
*430 FILLER_1_273
*431 FILLER_1_279
*432 FILLER_1_281
*433 FILLER_1_293
*434 FILLER_1_3
*435 FILLER_1_39
*436 FILLER_1_51
*437 FILLER_1_55
*438 FILLER_1_57
*439 FILLER_1_69
*440 FILLER_1_81
*441 FILLER_1_93
*442 FILLER_20_109
*443 FILLER_20_121
*444 FILLER_20_133
*445 FILLER_20_139
*446 FILLER_20_141
*447 FILLER_20_153
*448 FILLER_20_165
*449 FILLER_20_177
*450 FILLER_20_189
*451 FILLER_20_195
*452 FILLER_20_197
*453 FILLER_20_20
*454 FILLER_20_209
*455 FILLER_20_221
*456 FILLER_20_233
*457 FILLER_20_245
*458 FILLER_20_251
*459 FILLER_20_253
*460 FILLER_20_265
*461 FILLER_20_277
*462 FILLER_20_289
*463 FILLER_20_29
*464 FILLER_20_297
*465 FILLER_20_3
*466 FILLER_20_48
*467 FILLER_20_60
*468 FILLER_20_72
*469 FILLER_20_8
*470 FILLER_20_85
*471 FILLER_20_97
*472 FILLER_21_105
*473 FILLER_21_111
*474 FILLER_21_113
*475 FILLER_21_125
*476 FILLER_21_137
*477 FILLER_21_149
*478 FILLER_21_15
*479 FILLER_21_161
*480 FILLER_21_167
*481 FILLER_21_169
*482 FILLER_21_181
*483 FILLER_21_193
*484 FILLER_21_205
*485 FILLER_21_217
*486 FILLER_21_223
*487 FILLER_21_225
*488 FILLER_21_237
*489 FILLER_21_249
*490 FILLER_21_261
*491 FILLER_21_27
*492 FILLER_21_273
*493 FILLER_21_279
*494 FILLER_21_281
*495 FILLER_21_293
*496 FILLER_21_3
*497 FILLER_21_39
*498 FILLER_21_51
*499 FILLER_21_55
*500 FILLER_21_57
*501 FILLER_21_69
*502 FILLER_21_81
*503 FILLER_21_93
*504 FILLER_22_109
*505 FILLER_22_11
*506 FILLER_22_121
*507 FILLER_22_133
*508 FILLER_22_139
*509 FILLER_22_141
*510 FILLER_22_153
*511 FILLER_22_165
*512 FILLER_22_177
*513 FILLER_22_189
*514 FILLER_22_195
*515 FILLER_22_197
*516 FILLER_22_209
*517 FILLER_22_221
*518 FILLER_22_23
*519 FILLER_22_233
*520 FILLER_22_245
*521 FILLER_22_251
*522 FILLER_22_253
*523 FILLER_22_265
*524 FILLER_22_27
*525 FILLER_22_277
*526 FILLER_22_289
*527 FILLER_22_29
*528 FILLER_22_297
*529 FILLER_22_3
*530 FILLER_22_41
*531 FILLER_22_53
*532 FILLER_22_65
*533 FILLER_22_77
*534 FILLER_22_83
*535 FILLER_22_85
*536 FILLER_22_97
*537 FILLER_23_105
*538 FILLER_23_111
*539 FILLER_23_113
*540 FILLER_23_125
*541 FILLER_23_137
*542 FILLER_23_149
*543 FILLER_23_15
*544 FILLER_23_161
*545 FILLER_23_167
*546 FILLER_23_169
*547 FILLER_23_181
*548 FILLER_23_193
*549 FILLER_23_205
*550 FILLER_23_217
*551 FILLER_23_223
*552 FILLER_23_225
*553 FILLER_23_237
*554 FILLER_23_249
*555 FILLER_23_261
*556 FILLER_23_27
*557 FILLER_23_273
*558 FILLER_23_279
*559 FILLER_23_281
*560 FILLER_23_293
*561 FILLER_23_3
*562 FILLER_23_39
*563 FILLER_23_51
*564 FILLER_23_55
*565 FILLER_23_57
*566 FILLER_23_69
*567 FILLER_23_81
*568 FILLER_23_93
*569 FILLER_24_109
*570 FILLER_24_121
*571 FILLER_24_133
*572 FILLER_24_139
*573 FILLER_24_141
*574 FILLER_24_153
*575 FILLER_24_165
*576 FILLER_24_177
*577 FILLER_24_189
*578 FILLER_24_195
*579 FILLER_24_197
*580 FILLER_24_20
*581 FILLER_24_209
*582 FILLER_24_221
*583 FILLER_24_233
*584 FILLER_24_245
*585 FILLER_24_251
*586 FILLER_24_253
*587 FILLER_24_265
*588 FILLER_24_277
*589 FILLER_24_289
*590 FILLER_24_29
*591 FILLER_24_297
*592 FILLER_24_3
*593 FILLER_24_41
*594 FILLER_24_53
*595 FILLER_24_65
*596 FILLER_24_77
*597 FILLER_24_8
*598 FILLER_24_83
*599 FILLER_24_85
*600 FILLER_24_97
*601 FILLER_25_105
*602 FILLER_25_111
*603 FILLER_25_113
*604 FILLER_25_125
*605 FILLER_25_137
*606 FILLER_25_149
*607 FILLER_25_15
*608 FILLER_25_161
*609 FILLER_25_167
*610 FILLER_25_169
*611 FILLER_25_181
*612 FILLER_25_193
*613 FILLER_25_205
*614 FILLER_25_217
*615 FILLER_25_223
*616 FILLER_25_225
*617 FILLER_25_237
*618 FILLER_25_249
*619 FILLER_25_261
*620 FILLER_25_27
*621 FILLER_25_273
*622 FILLER_25_279
*623 FILLER_25_281
*624 FILLER_25_293
*625 FILLER_25_3
*626 FILLER_25_39
*627 FILLER_25_51
*628 FILLER_25_55
*629 FILLER_25_57
*630 FILLER_25_69
*631 FILLER_25_81
*632 FILLER_25_93
*633 FILLER_26_109
*634 FILLER_26_121
*635 FILLER_26_133
*636 FILLER_26_139
*637 FILLER_26_141
*638 FILLER_26_15
*639 FILLER_26_153
*640 FILLER_26_165
*641 FILLER_26_177
*642 FILLER_26_189
*643 FILLER_26_195
*644 FILLER_26_197
*645 FILLER_26_209
*646 FILLER_26_221
*647 FILLER_26_233
*648 FILLER_26_245
*649 FILLER_26_251
*650 FILLER_26_253
*651 FILLER_26_265
*652 FILLER_26_27
*653 FILLER_26_277
*654 FILLER_26_289
*655 FILLER_26_29
*656 FILLER_26_297
*657 FILLER_26_3
*658 FILLER_26_41
*659 FILLER_26_53
*660 FILLER_26_65
*661 FILLER_26_77
*662 FILLER_26_83
*663 FILLER_26_85
*664 FILLER_26_97
*665 FILLER_27_105
*666 FILLER_27_111
*667 FILLER_27_113
*668 FILLER_27_125
*669 FILLER_27_137
*670 FILLER_27_149
*671 FILLER_27_15
*672 FILLER_27_161
*673 FILLER_27_167
*674 FILLER_27_169
*675 FILLER_27_181
*676 FILLER_27_193
*677 FILLER_27_205
*678 FILLER_27_217
*679 FILLER_27_223
*680 FILLER_27_225
*681 FILLER_27_237
*682 FILLER_27_249
*683 FILLER_27_261
*684 FILLER_27_27
*685 FILLER_27_273
*686 FILLER_27_279
*687 FILLER_27_281
*688 FILLER_27_293
*689 FILLER_27_3
*690 FILLER_27_39
*691 FILLER_27_51
*692 FILLER_27_55
*693 FILLER_27_57
*694 FILLER_27_69
*695 FILLER_27_81
*696 FILLER_27_93
*697 FILLER_28_10
*698 FILLER_28_109
*699 FILLER_28_121
*700 FILLER_28_133
*701 FILLER_28_139
*702 FILLER_28_141
*703 FILLER_28_153
*704 FILLER_28_165
*705 FILLER_28_177
*706 FILLER_28_189
*707 FILLER_28_195
*708 FILLER_28_197
*709 FILLER_28_209
*710 FILLER_28_22
*711 FILLER_28_221
*712 FILLER_28_233
*713 FILLER_28_245
*714 FILLER_28_251
*715 FILLER_28_253
*716 FILLER_28_265
*717 FILLER_28_277
*718 FILLER_28_289
*719 FILLER_28_29
*720 FILLER_28_297
*721 FILLER_28_3
*722 FILLER_28_41
*723 FILLER_28_53
*724 FILLER_28_65
*725 FILLER_28_77
*726 FILLER_28_83
*727 FILLER_28_85
*728 FILLER_28_97
*729 FILLER_29_105
*730 FILLER_29_111
*731 FILLER_29_113
*732 FILLER_29_125
*733 FILLER_29_137
*734 FILLER_29_149
*735 FILLER_29_15
*736 FILLER_29_161
*737 FILLER_29_167
*738 FILLER_29_169
*739 FILLER_29_181
*740 FILLER_29_193
*741 FILLER_29_205
*742 FILLER_29_217
*743 FILLER_29_223
*744 FILLER_29_225
*745 FILLER_29_237
*746 FILLER_29_249
*747 FILLER_29_261
*748 FILLER_29_27
*749 FILLER_29_273
*750 FILLER_29_279
*751 FILLER_29_281
*752 FILLER_29_293
*753 FILLER_29_3
*754 FILLER_29_39
*755 FILLER_29_51
*756 FILLER_29_55
*757 FILLER_29_57
*758 FILLER_29_69
*759 FILLER_29_81
*760 FILLER_29_93
*761 FILLER_2_109
*762 FILLER_2_121
*763 FILLER_2_133
*764 FILLER_2_139
*765 FILLER_2_141
*766 FILLER_2_15
*767 FILLER_2_153
*768 FILLER_2_165
*769 FILLER_2_177
*770 FILLER_2_189
*771 FILLER_2_195
*772 FILLER_2_197
*773 FILLER_2_209
*774 FILLER_2_221
*775 FILLER_2_233
*776 FILLER_2_245
*777 FILLER_2_251
*778 FILLER_2_253
*779 FILLER_2_265
*780 FILLER_2_27
*781 FILLER_2_277
*782 FILLER_2_289
*783 FILLER_2_29
*784 FILLER_2_297
*785 FILLER_2_3
*786 FILLER_2_41
*787 FILLER_2_53
*788 FILLER_2_65
*789 FILLER_2_77
*790 FILLER_2_83
*791 FILLER_2_85
*792 FILLER_2_97
*793 FILLER_30_109
*794 FILLER_30_121
*795 FILLER_30_133
*796 FILLER_30_139
*797 FILLER_30_141
*798 FILLER_30_15
*799 FILLER_30_153
*800 FILLER_30_165
*801 FILLER_30_177
*802 FILLER_30_189
*803 FILLER_30_195
*804 FILLER_30_197
*805 FILLER_30_209
*806 FILLER_30_221
*807 FILLER_30_233
*808 FILLER_30_245
*809 FILLER_30_251
*810 FILLER_30_253
*811 FILLER_30_265
*812 FILLER_30_27
*813 FILLER_30_277
*814 FILLER_30_289
*815 FILLER_30_29
*816 FILLER_30_297
*817 FILLER_30_3
*818 FILLER_30_41
*819 FILLER_30_53
*820 FILLER_30_65
*821 FILLER_30_77
*822 FILLER_30_83
*823 FILLER_30_85
*824 FILLER_30_97
*825 FILLER_31_105
*826 FILLER_31_111
*827 FILLER_31_113
*828 FILLER_31_125
*829 FILLER_31_137
*830 FILLER_31_149
*831 FILLER_31_161
*832 FILLER_31_167
*833 FILLER_31_169
*834 FILLER_31_181
*835 FILLER_31_193
*836 FILLER_31_205
*837 FILLER_31_217
*838 FILLER_31_223
*839 FILLER_31_225
*840 FILLER_31_237
*841 FILLER_31_249
*842 FILLER_31_261
*843 FILLER_31_27
*844 FILLER_31_273
*845 FILLER_31_279
*846 FILLER_31_281
*847 FILLER_31_293
*848 FILLER_31_3
*849 FILLER_31_39
*850 FILLER_31_51
*851 FILLER_31_55
*852 FILLER_31_57
*853 FILLER_31_69
*854 FILLER_31_81
*855 FILLER_31_9
*856 FILLER_31_93
*857 FILLER_32_109
*858 FILLER_32_121
*859 FILLER_32_133
*860 FILLER_32_139
*861 FILLER_32_141
*862 FILLER_32_153
*863 FILLER_32_165
*864 FILLER_32_177
*865 FILLER_32_189
*866 FILLER_32_195
*867 FILLER_32_197
*868 FILLER_32_209
*869 FILLER_32_221
*870 FILLER_32_233
*871 FILLER_32_245
*872 FILLER_32_251
*873 FILLER_32_253
*874 FILLER_32_26
*875 FILLER_32_265
*876 FILLER_32_277
*877 FILLER_32_289
*878 FILLER_32_29
*879 FILLER_32_297
*880 FILLER_32_3
*881 FILLER_32_41
*882 FILLER_32_53
*883 FILLER_32_65
*884 FILLER_32_77
*885 FILLER_32_83
*886 FILLER_32_85
*887 FILLER_32_97
*888 FILLER_33_105
*889 FILLER_33_111
*890 FILLER_33_113
*891 FILLER_33_125
*892 FILLER_33_13
*893 FILLER_33_137
*894 FILLER_33_149
*895 FILLER_33_161
*896 FILLER_33_167
*897 FILLER_33_169
*898 FILLER_33_17
*899 FILLER_33_181
*900 FILLER_33_193
*901 FILLER_33_205
*902 FILLER_33_217
*903 FILLER_33_223
*904 FILLER_33_225
*905 FILLER_33_237
*906 FILLER_33_249
*907 FILLER_33_261
*908 FILLER_33_273
*909 FILLER_33_279
*910 FILLER_33_281
*911 FILLER_33_293
*912 FILLER_33_3
*913 FILLER_33_35
*914 FILLER_33_47
*915 FILLER_33_55
*916 FILLER_33_57
*917 FILLER_33_69
*918 FILLER_33_81
*919 FILLER_33_9
*920 FILLER_33_93
*921 FILLER_34_109
*922 FILLER_34_121
*923 FILLER_34_13
*924 FILLER_34_133
*925 FILLER_34_139
*926 FILLER_34_141
*927 FILLER_34_153
*928 FILLER_34_165
*929 FILLER_34_177
*930 FILLER_34_189
*931 FILLER_34_195
*932 FILLER_34_197
*933 FILLER_34_20
*934 FILLER_34_209
*935 FILLER_34_221
*936 FILLER_34_233
*937 FILLER_34_245
*938 FILLER_34_251
*939 FILLER_34_253
*940 FILLER_34_265
*941 FILLER_34_277
*942 FILLER_34_289
*943 FILLER_34_29
*944 FILLER_34_297
*945 FILLER_34_3
*946 FILLER_34_41
*947 FILLER_34_53
*948 FILLER_34_65
*949 FILLER_34_77
*950 FILLER_34_83
*951 FILLER_34_85
*952 FILLER_34_97
*953 FILLER_35_105
*954 FILLER_35_111
*955 FILLER_35_113
*956 FILLER_35_125
*957 FILLER_35_137
*958 FILLER_35_149
*959 FILLER_35_15
*960 FILLER_35_161
*961 FILLER_35_167
*962 FILLER_35_169
*963 FILLER_35_181
*964 FILLER_35_19
*965 FILLER_35_193
*966 FILLER_35_205
*967 FILLER_35_217
*968 FILLER_35_223
*969 FILLER_35_225
*970 FILLER_35_237
*971 FILLER_35_249
*972 FILLER_35_261
*973 FILLER_35_273
*974 FILLER_35_279
*975 FILLER_35_281
*976 FILLER_35_293
*977 FILLER_35_3
*978 FILLER_35_37
*979 FILLER_35_49
*980 FILLER_35_55
*981 FILLER_35_57
*982 FILLER_35_69
*983 FILLER_35_81
*984 FILLER_35_93
*985 FILLER_36_109
*986 FILLER_36_121
*987 FILLER_36_133
*988 FILLER_36_139
*989 FILLER_36_141
*990 FILLER_36_153
*991 FILLER_36_165
*992 FILLER_36_177
*993 FILLER_36_189
*994 FILLER_36_19
*995 FILLER_36_195
*996 FILLER_36_197
*997 FILLER_36_209
*998 FILLER_36_221
*999 FILLER_36_233
*1000 FILLER_36_245
*1001 FILLER_36_251
*1002 FILLER_36_253
*1003 FILLER_36_265
*1004 FILLER_36_27
*1005 FILLER_36_277
*1006 FILLER_36_289
*1007 FILLER_36_29
*1008 FILLER_36_297
*1009 FILLER_36_3
*1010 FILLER_36_41
*1011 FILLER_36_53
*1012 FILLER_36_65
*1013 FILLER_36_77
*1014 FILLER_36_8
*1015 FILLER_36_83
*1016 FILLER_36_85
*1017 FILLER_36_97
*1018 FILLER_37_10
*1019 FILLER_37_105
*1020 FILLER_37_111
*1021 FILLER_37_113
*1022 FILLER_37_125
*1023 FILLER_37_137
*1024 FILLER_37_149
*1025 FILLER_37_161
*1026 FILLER_37_167
*1027 FILLER_37_169
*1028 FILLER_37_181
*1029 FILLER_37_193
*1030 FILLER_37_205
*1031 FILLER_37_217
*1032 FILLER_37_22
*1033 FILLER_37_223
*1034 FILLER_37_225
*1035 FILLER_37_237
*1036 FILLER_37_249
*1037 FILLER_37_261
*1038 FILLER_37_273
*1039 FILLER_37_279
*1040 FILLER_37_281
*1041 FILLER_37_293
*1042 FILLER_37_3
*1043 FILLER_37_34
*1044 FILLER_37_46
*1045 FILLER_37_54
*1046 FILLER_37_57
*1047 FILLER_37_69
*1048 FILLER_37_81
*1049 FILLER_37_93
*1050 FILLER_38_109
*1051 FILLER_38_11
*1052 FILLER_38_121
*1053 FILLER_38_133
*1054 FILLER_38_139
*1055 FILLER_38_141
*1056 FILLER_38_153
*1057 FILLER_38_165
*1058 FILLER_38_177
*1059 FILLER_38_189
*1060 FILLER_38_195
*1061 FILLER_38_197
*1062 FILLER_38_209
*1063 FILLER_38_22
*1064 FILLER_38_221
*1065 FILLER_38_233
*1066 FILLER_38_245
*1067 FILLER_38_251
*1068 FILLER_38_253
*1069 FILLER_38_265
*1070 FILLER_38_277
*1071 FILLER_38_289
*1072 FILLER_38_29
*1073 FILLER_38_297
*1074 FILLER_38_3
*1075 FILLER_38_41
*1076 FILLER_38_53
*1077 FILLER_38_65
*1078 FILLER_38_77
*1079 FILLER_38_83
*1080 FILLER_38_85
*1081 FILLER_38_97
*1082 FILLER_39_105
*1083 FILLER_39_111
*1084 FILLER_39_113
*1085 FILLER_39_125
*1086 FILLER_39_137
*1087 FILLER_39_149
*1088 FILLER_39_15
*1089 FILLER_39_161
*1090 FILLER_39_167
*1091 FILLER_39_169
*1092 FILLER_39_181
*1093 FILLER_39_193
*1094 FILLER_39_205
*1095 FILLER_39_217
*1096 FILLER_39_223
*1097 FILLER_39_225
*1098 FILLER_39_237
*1099 FILLER_39_249
*1100 FILLER_39_261
*1101 FILLER_39_27
*1102 FILLER_39_273
*1103 FILLER_39_279
*1104 FILLER_39_281
*1105 FILLER_39_293
*1106 FILLER_39_3
*1107 FILLER_39_39
*1108 FILLER_39_51
*1109 FILLER_39_55
*1110 FILLER_39_57
*1111 FILLER_39_69
*1112 FILLER_39_81
*1113 FILLER_39_93
*1114 FILLER_3_105
*1115 FILLER_3_111
*1116 FILLER_3_113
*1117 FILLER_3_125
*1118 FILLER_3_137
*1119 FILLER_3_149
*1120 FILLER_3_15
*1121 FILLER_3_161
*1122 FILLER_3_167
*1123 FILLER_3_169
*1124 FILLER_3_181
*1125 FILLER_3_193
*1126 FILLER_3_205
*1127 FILLER_3_217
*1128 FILLER_3_223
*1129 FILLER_3_225
*1130 FILLER_3_237
*1131 FILLER_3_249
*1132 FILLER_3_261
*1133 FILLER_3_27
*1134 FILLER_3_273
*1135 FILLER_3_279
*1136 FILLER_3_281
*1137 FILLER_3_293
*1138 FILLER_3_3
*1139 FILLER_3_39
*1140 FILLER_3_51
*1141 FILLER_3_55
*1142 FILLER_3_57
*1143 FILLER_3_69
*1144 FILLER_3_81
*1145 FILLER_3_93
*1146 FILLER_40_109
*1147 FILLER_40_121
*1148 FILLER_40_133
*1149 FILLER_40_139
*1150 FILLER_40_141
*1151 FILLER_40_153
*1152 FILLER_40_165
*1153 FILLER_40_177
*1154 FILLER_40_18
*1155 FILLER_40_189
*1156 FILLER_40_195
*1157 FILLER_40_197
*1158 FILLER_40_209
*1159 FILLER_40_221
*1160 FILLER_40_233
*1161 FILLER_40_245
*1162 FILLER_40_251
*1163 FILLER_40_253
*1164 FILLER_40_26
*1165 FILLER_40_265
*1166 FILLER_40_277
*1167 FILLER_40_289
*1168 FILLER_40_29
*1169 FILLER_40_297
*1170 FILLER_40_3
*1171 FILLER_40_41
*1172 FILLER_40_53
*1173 FILLER_40_65
*1174 FILLER_40_77
*1175 FILLER_40_83
*1176 FILLER_40_85
*1177 FILLER_40_97
*1178 FILLER_41_105
*1179 FILLER_41_111
*1180 FILLER_41_113
*1181 FILLER_41_125
*1182 FILLER_41_137
*1183 FILLER_41_149
*1184 FILLER_41_15
*1185 FILLER_41_161
*1186 FILLER_41_167
*1187 FILLER_41_169
*1188 FILLER_41_181
*1189 FILLER_41_193
*1190 FILLER_41_205
*1191 FILLER_41_217
*1192 FILLER_41_223
*1193 FILLER_41_225
*1194 FILLER_41_237
*1195 FILLER_41_249
*1196 FILLER_41_261
*1197 FILLER_41_27
*1198 FILLER_41_273
*1199 FILLER_41_279
*1200 FILLER_41_281
*1201 FILLER_41_293
*1202 FILLER_41_3
*1203 FILLER_41_39
*1204 FILLER_41_51
*1205 FILLER_41_55
*1206 FILLER_41_57
*1207 FILLER_41_69
*1208 FILLER_41_81
*1209 FILLER_41_93
*1210 FILLER_42_109
*1211 FILLER_42_121
*1212 FILLER_42_133
*1213 FILLER_42_139
*1214 FILLER_42_141
*1215 FILLER_42_15
*1216 FILLER_42_153
*1217 FILLER_42_165
*1218 FILLER_42_177
*1219 FILLER_42_189
*1220 FILLER_42_195
*1221 FILLER_42_197
*1222 FILLER_42_209
*1223 FILLER_42_221
*1224 FILLER_42_233
*1225 FILLER_42_245
*1226 FILLER_42_251
*1227 FILLER_42_253
*1228 FILLER_42_265
*1229 FILLER_42_27
*1230 FILLER_42_277
*1231 FILLER_42_289
*1232 FILLER_42_29
*1233 FILLER_42_297
*1234 FILLER_42_3
*1235 FILLER_42_41
*1236 FILLER_42_53
*1237 FILLER_42_65
*1238 FILLER_42_77
*1239 FILLER_42_83
*1240 FILLER_42_85
*1241 FILLER_42_97
*1242 FILLER_43_105
*1243 FILLER_43_111
*1244 FILLER_43_113
*1245 FILLER_43_125
*1246 FILLER_43_137
*1247 FILLER_43_149
*1248 FILLER_43_15
*1249 FILLER_43_161
*1250 FILLER_43_167
*1251 FILLER_43_169
*1252 FILLER_43_181
*1253 FILLER_43_193
*1254 FILLER_43_205
*1255 FILLER_43_217
*1256 FILLER_43_223
*1257 FILLER_43_225
*1258 FILLER_43_237
*1259 FILLER_43_249
*1260 FILLER_43_261
*1261 FILLER_43_27
*1262 FILLER_43_273
*1263 FILLER_43_279
*1264 FILLER_43_281
*1265 FILLER_43_293
*1266 FILLER_43_3
*1267 FILLER_43_39
*1268 FILLER_43_51
*1269 FILLER_43_55
*1270 FILLER_43_57
*1271 FILLER_43_69
*1272 FILLER_43_81
*1273 FILLER_43_93
*1274 FILLER_44_109
*1275 FILLER_44_121
*1276 FILLER_44_133
*1277 FILLER_44_139
*1278 FILLER_44_141
*1279 FILLER_44_15
*1280 FILLER_44_153
*1281 FILLER_44_165
*1282 FILLER_44_177
*1283 FILLER_44_189
*1284 FILLER_44_195
*1285 FILLER_44_197
*1286 FILLER_44_209
*1287 FILLER_44_221
*1288 FILLER_44_233
*1289 FILLER_44_245
*1290 FILLER_44_251
*1291 FILLER_44_253
*1292 FILLER_44_265
*1293 FILLER_44_27
*1294 FILLER_44_277
*1295 FILLER_44_289
*1296 FILLER_44_29
*1297 FILLER_44_297
*1298 FILLER_44_3
*1299 FILLER_44_41
*1300 FILLER_44_53
*1301 FILLER_44_65
*1302 FILLER_44_77
*1303 FILLER_44_83
*1304 FILLER_44_85
*1305 FILLER_44_97
*1306 FILLER_45_105
*1307 FILLER_45_111
*1308 FILLER_45_113
*1309 FILLER_45_125
*1310 FILLER_45_137
*1311 FILLER_45_149
*1312 FILLER_45_15
*1313 FILLER_45_161
*1314 FILLER_45_167
*1315 FILLER_45_169
*1316 FILLER_45_181
*1317 FILLER_45_193
*1318 FILLER_45_205
*1319 FILLER_45_217
*1320 FILLER_45_223
*1321 FILLER_45_225
*1322 FILLER_45_237
*1323 FILLER_45_249
*1324 FILLER_45_261
*1325 FILLER_45_27
*1326 FILLER_45_273
*1327 FILLER_45_279
*1328 FILLER_45_281
*1329 FILLER_45_293
*1330 FILLER_45_3
*1331 FILLER_45_39
*1332 FILLER_45_51
*1333 FILLER_45_55
*1334 FILLER_45_57
*1335 FILLER_45_69
*1336 FILLER_45_81
*1337 FILLER_45_93
*1338 FILLER_46_109
*1339 FILLER_46_121
*1340 FILLER_46_133
*1341 FILLER_46_139
*1342 FILLER_46_141
*1343 FILLER_46_15
*1344 FILLER_46_153
*1345 FILLER_46_165
*1346 FILLER_46_177
*1347 FILLER_46_189
*1348 FILLER_46_195
*1349 FILLER_46_197
*1350 FILLER_46_209
*1351 FILLER_46_221
*1352 FILLER_46_233
*1353 FILLER_46_245
*1354 FILLER_46_251
*1355 FILLER_46_253
*1356 FILLER_46_265
*1357 FILLER_46_27
*1358 FILLER_46_277
*1359 FILLER_46_289
*1360 FILLER_46_29
*1361 FILLER_46_297
*1362 FILLER_46_3
*1363 FILLER_46_41
*1364 FILLER_46_53
*1365 FILLER_46_65
*1366 FILLER_46_77
*1367 FILLER_46_83
*1368 FILLER_46_85
*1369 FILLER_46_97
*1370 FILLER_47_105
*1371 FILLER_47_111
*1372 FILLER_47_113
*1373 FILLER_47_125
*1374 FILLER_47_137
*1375 FILLER_47_149
*1376 FILLER_47_15
*1377 FILLER_47_161
*1378 FILLER_47_167
*1379 FILLER_47_169
*1380 FILLER_47_181
*1381 FILLER_47_193
*1382 FILLER_47_205
*1383 FILLER_47_217
*1384 FILLER_47_223
*1385 FILLER_47_225
*1386 FILLER_47_237
*1387 FILLER_47_249
*1388 FILLER_47_261
*1389 FILLER_47_27
*1390 FILLER_47_273
*1391 FILLER_47_279
*1392 FILLER_47_281
*1393 FILLER_47_293
*1394 FILLER_47_3
*1395 FILLER_47_39
*1396 FILLER_47_51
*1397 FILLER_47_55
*1398 FILLER_47_57
*1399 FILLER_47_69
*1400 FILLER_47_81
*1401 FILLER_47_93
*1402 FILLER_48_109
*1403 FILLER_48_121
*1404 FILLER_48_133
*1405 FILLER_48_139
*1406 FILLER_48_141
*1407 FILLER_48_15
*1408 FILLER_48_153
*1409 FILLER_48_165
*1410 FILLER_48_177
*1411 FILLER_48_189
*1412 FILLER_48_195
*1413 FILLER_48_197
*1414 FILLER_48_209
*1415 FILLER_48_221
*1416 FILLER_48_233
*1417 FILLER_48_245
*1418 FILLER_48_251
*1419 FILLER_48_253
*1420 FILLER_48_265
*1421 FILLER_48_27
*1422 FILLER_48_277
*1423 FILLER_48_289
*1424 FILLER_48_29
*1425 FILLER_48_297
*1426 FILLER_48_3
*1427 FILLER_48_41
*1428 FILLER_48_53
*1429 FILLER_48_65
*1430 FILLER_48_77
*1431 FILLER_48_83
*1432 FILLER_48_85
*1433 FILLER_48_97
*1434 FILLER_49_105
*1435 FILLER_49_111
*1436 FILLER_49_113
*1437 FILLER_49_125
*1438 FILLER_49_137
*1439 FILLER_49_149
*1440 FILLER_49_15
*1441 FILLER_49_161
*1442 FILLER_49_167
*1443 FILLER_49_169
*1444 FILLER_49_181
*1445 FILLER_49_193
*1446 FILLER_49_205
*1447 FILLER_49_217
*1448 FILLER_49_223
*1449 FILLER_49_225
*1450 FILLER_49_237
*1451 FILLER_49_249
*1452 FILLER_49_261
*1453 FILLER_49_27
*1454 FILLER_49_273
*1455 FILLER_49_279
*1456 FILLER_49_281
*1457 FILLER_49_293
*1458 FILLER_49_3
*1459 FILLER_49_39
*1460 FILLER_49_51
*1461 FILLER_49_55
*1462 FILLER_49_57
*1463 FILLER_49_69
*1464 FILLER_49_81
*1465 FILLER_49_93
*1466 FILLER_4_109
*1467 FILLER_4_121
*1468 FILLER_4_133
*1469 FILLER_4_139
*1470 FILLER_4_141
*1471 FILLER_4_15
*1472 FILLER_4_153
*1473 FILLER_4_165
*1474 FILLER_4_177
*1475 FILLER_4_189
*1476 FILLER_4_195
*1477 FILLER_4_197
*1478 FILLER_4_209
*1479 FILLER_4_221
*1480 FILLER_4_233
*1481 FILLER_4_245
*1482 FILLER_4_251
*1483 FILLER_4_253
*1484 FILLER_4_265
*1485 FILLER_4_27
*1486 FILLER_4_277
*1487 FILLER_4_289
*1488 FILLER_4_29
*1489 FILLER_4_297
*1490 FILLER_4_3
*1491 FILLER_4_41
*1492 FILLER_4_53
*1493 FILLER_4_65
*1494 FILLER_4_77
*1495 FILLER_4_83
*1496 FILLER_4_85
*1497 FILLER_4_97
*1498 FILLER_50_109
*1499 FILLER_50_121
*1500 FILLER_50_133
*1501 FILLER_50_139
*1502 FILLER_50_141
*1503 FILLER_50_153
*1504 FILLER_50_165
*1505 FILLER_50_177
*1506 FILLER_50_189
*1507 FILLER_50_195
*1508 FILLER_50_197
*1509 FILLER_50_20
*1510 FILLER_50_209
*1511 FILLER_50_221
*1512 FILLER_50_233
*1513 FILLER_50_245
*1514 FILLER_50_251
*1515 FILLER_50_253
*1516 FILLER_50_265
*1517 FILLER_50_277
*1518 FILLER_50_289
*1519 FILLER_50_29
*1520 FILLER_50_297
*1521 FILLER_50_3
*1522 FILLER_50_41
*1523 FILLER_50_53
*1524 FILLER_50_65
*1525 FILLER_50_77
*1526 FILLER_50_8
*1527 FILLER_50_83
*1528 FILLER_50_85
*1529 FILLER_50_97
*1530 FILLER_51_105
*1531 FILLER_51_111
*1532 FILLER_51_113
*1533 FILLER_51_125
*1534 FILLER_51_137
*1535 FILLER_51_149
*1536 FILLER_51_15
*1537 FILLER_51_161
*1538 FILLER_51_167
*1539 FILLER_51_169
*1540 FILLER_51_181
*1541 FILLER_51_193
*1542 FILLER_51_205
*1543 FILLER_51_217
*1544 FILLER_51_223
*1545 FILLER_51_225
*1546 FILLER_51_237
*1547 FILLER_51_249
*1548 FILLER_51_261
*1549 FILLER_51_27
*1550 FILLER_51_273
*1551 FILLER_51_279
*1552 FILLER_51_281
*1553 FILLER_51_293
*1554 FILLER_51_3
*1555 FILLER_51_39
*1556 FILLER_51_51
*1557 FILLER_51_55
*1558 FILLER_51_57
*1559 FILLER_51_69
*1560 FILLER_51_81
*1561 FILLER_51_93
*1562 FILLER_52_109
*1563 FILLER_52_121
*1564 FILLER_52_133
*1565 FILLER_52_139
*1566 FILLER_52_141
*1567 FILLER_52_15
*1568 FILLER_52_153
*1569 FILLER_52_165
*1570 FILLER_52_177
*1571 FILLER_52_189
*1572 FILLER_52_195
*1573 FILLER_52_197
*1574 FILLER_52_209
*1575 FILLER_52_221
*1576 FILLER_52_233
*1577 FILLER_52_245
*1578 FILLER_52_251
*1579 FILLER_52_253
*1580 FILLER_52_265
*1581 FILLER_52_27
*1582 FILLER_52_277
*1583 FILLER_52_289
*1584 FILLER_52_29
*1585 FILLER_52_297
*1586 FILLER_52_3
*1587 FILLER_52_41
*1588 FILLER_52_53
*1589 FILLER_52_65
*1590 FILLER_52_77
*1591 FILLER_52_83
*1592 FILLER_52_85
*1593 FILLER_52_97
*1594 FILLER_53_105
*1595 FILLER_53_111
*1596 FILLER_53_113