*SPEF "ieee 1481-1999"
*DESIGN "blueintegral_mat_mult"
*DATE "11:11:11 Fri 11 11, 1111"
*VENDOR "OpenRCX"
*PROGRAM "Parallel Extraction"
*VERSION "1.0"
*DESIGN_FLOW "NAME_SCOPE LOCAL" "PIN_CAP NONE"
*DIVIDER /
*DELIMITER :
*BUS_DELIMITER []
*T_UNIT 1 NS
*C_UNIT 1 PF
*R_UNIT 1 OHM
*L_UNIT 1 HENRY

*NAME_MAP
*1 io_in[0]
*2 io_in[1]
*3 io_in[2]
*4 io_in[3]
*5 io_in[4]
*6 io_in[5]
*7 io_in[6]
*8 io_in[7]
*9 io_out[0]
*10 io_out[1]
*11 io_out[2]
*12 io_out[3]
*13 io_out[4]
*14 io_out[5]
*15 io_out[6]
*16 io_out[7]
*19 _00_
*20 _01_
*21 _02_
*22 _03_
*23 _04_
*24 _05_
*25 _06_
*26 _07_
*27 clknet_0_io_in[0]
*28 clknet_1_0__leaf_io_in[0]
*29 clknet_1_1__leaf_io_in[0]
*30 net1
*31 net2
*32 net3
*33 net4
*34 net5
*35 net6
*36 net7
*37 FILLER_0_109
*38 FILLER_0_113
*39 FILLER_0_125
*40 FILLER_0_137
*41 FILLER_0_141
*42 FILLER_0_15
*43 FILLER_0_153
*44 FILLER_0_165
*45 FILLER_0_169
*46 FILLER_0_181
*47 FILLER_0_193
*48 FILLER_0_197
*49 FILLER_0_209
*50 FILLER_0_221
*51 FILLER_0_225
*52 FILLER_0_237
*53 FILLER_0_249
*54 FILLER_0_253
*55 FILLER_0_265
*56 FILLER_0_27
*57 FILLER_0_277
*58 FILLER_0_281
*59 FILLER_0_29
*60 FILLER_0_293
*61 FILLER_0_3
*62 FILLER_0_41
*63 FILLER_0_53
*64 FILLER_0_57
*65 FILLER_0_69
*66 FILLER_0_81
*67 FILLER_0_85
*68 FILLER_0_97
*69 FILLER_10_109
*70 FILLER_10_121
*71 FILLER_10_133
*72 FILLER_10_139
*73 FILLER_10_141
*74 FILLER_10_15
*75 FILLER_10_153
*76 FILLER_10_165
*77 FILLER_10_177
*78 FILLER_10_189
*79 FILLER_10_195
*80 FILLER_10_197
*81 FILLER_10_209
*82 FILLER_10_221
*83 FILLER_10_233
*84 FILLER_10_245
*85 FILLER_10_251
*86 FILLER_10_253
*87 FILLER_10_265
*88 FILLER_10_27
*89 FILLER_10_277
*90 FILLER_10_289
*91 FILLER_10_29
*92 FILLER_10_297
*93 FILLER_10_3
*94 FILLER_10_41
*95 FILLER_10_53
*96 FILLER_10_65
*97 FILLER_10_77
*98 FILLER_10_83
*99 FILLER_10_85
*100 FILLER_10_97
*101 FILLER_11_105
*102 FILLER_11_111
*103 FILLER_11_113
*104 FILLER_11_125
*105 FILLER_11_137
*106 FILLER_11_149
*107 FILLER_11_15
*108 FILLER_11_161
*109 FILLER_11_167
*110 FILLER_11_169
*111 FILLER_11_181
*112 FILLER_11_193
*113 FILLER_11_205
*114 FILLER_11_217
*115 FILLER_11_223
*116 FILLER_11_225
*117 FILLER_11_237
*118 FILLER_11_249
*119 FILLER_11_261
*120 FILLER_11_27
*121 FILLER_11_273
*122 FILLER_11_279
*123 FILLER_11_281
*124 FILLER_11_293
*125 FILLER_11_3
*126 FILLER_11_39
*127 FILLER_11_51
*128 FILLER_11_55
*129 FILLER_11_57
*130 FILLER_11_69
*131 FILLER_11_81
*132 FILLER_11_93
*133 FILLER_12_109
*134 FILLER_12_121
*135 FILLER_12_133
*136 FILLER_12_139
*137 FILLER_12_141
*138 FILLER_12_153
*139 FILLER_12_165
*140 FILLER_12_177
*141 FILLER_12_189
*142 FILLER_12_195
*143 FILLER_12_197
*144 FILLER_12_209
*145 FILLER_12_21
*146 FILLER_12_221
*147 FILLER_12_233
*148 FILLER_12_245
*149 FILLER_12_251
*150 FILLER_12_253
*151 FILLER_12_265
*152 FILLER_12_27
*153 FILLER_12_277
*154 FILLER_12_289
*155 FILLER_12_29
*156 FILLER_12_297
*157 FILLER_12_3
*158 FILLER_12_41
*159 FILLER_12_53
*160 FILLER_12_65
*161 FILLER_12_77
*162 FILLER_12_83
*163 FILLER_12_85
*164 FILLER_12_9
*165 FILLER_12_97
*166 FILLER_13_105
*167 FILLER_13_111
*168 FILLER_13_113
*169 FILLER_13_125
*170 FILLER_13_137
*171 FILLER_13_149
*172 FILLER_13_15
*173 FILLER_13_161
*174 FILLER_13_167
*175 FILLER_13_169
*176 FILLER_13_181
*177 FILLER_13_193
*178 FILLER_13_205
*179 FILLER_13_217
*180 FILLER_13_223
*181 FILLER_13_225
*182 FILLER_13_237
*183 FILLER_13_249
*184 FILLER_13_261
*185 FILLER_13_27
*186 FILLER_13_273
*187 FILLER_13_279
*188 FILLER_13_281
*189 FILLER_13_293
*190 FILLER_13_3
*191 FILLER_13_39
*192 FILLER_13_51
*193 FILLER_13_55
*194 FILLER_13_57
*195 FILLER_13_69
*196 FILLER_13_81
*197 FILLER_13_93
*198 FILLER_14_109
*199 FILLER_14_121
*200 FILLER_14_133
*201 FILLER_14_139
*202 FILLER_14_141
*203 FILLER_14_15
*204 FILLER_14_153
*205 FILLER_14_165
*206 FILLER_14_177
*207 FILLER_14_189
*208 FILLER_14_195
*209 FILLER_14_197
*210 FILLER_14_209
*211 FILLER_14_221
*212 FILLER_14_233
*213 FILLER_14_245
*214 FILLER_14_251
*215 FILLER_14_253
*216 FILLER_14_265
*217 FILLER_14_27
*218 FILLER_14_277
*219 FILLER_14_289
*220 FILLER_14_29
*221 FILLER_14_297
*222 FILLER_14_3
*223 FILLER_14_41
*224 FILLER_14_53
*225 FILLER_14_65
*226 FILLER_14_77
*227 FILLER_14_83
*228 FILLER_14_85
*229 FILLER_14_97
*230 FILLER_15_105
*231 FILLER_15_111
*232 FILLER_15_113
*233 FILLER_15_125
*234 FILLER_15_137
*235 FILLER_15_149
*236 FILLER_15_15
*237 FILLER_15_161
*238 FILLER_15_167
*239 FILLER_15_169
*240 FILLER_15_181
*241 FILLER_15_193
*242 FILLER_15_205
*243 FILLER_15_217
*244 FILLER_15_223
*245 FILLER_15_225
*246 FILLER_15_237
*247 FILLER_15_249
*248 FILLER_15_261
*249 FILLER_15_27
*250 FILLER_15_273
*251 FILLER_15_279
*252 FILLER_15_281
*253 FILLER_15_293
*254 FILLER_15_3
*255 FILLER_15_39
*256 FILLER_15_51
*257 FILLER_15_55
*258 FILLER_15_57
*259 FILLER_15_69
*260 FILLER_15_81
*261 FILLER_15_93
*262 FILLER_16_109
*263 FILLER_16_121
*264 FILLER_16_133
*265 FILLER_16_139
*266 FILLER_16_141
*267 FILLER_16_15
*268 FILLER_16_153
*269 FILLER_16_165
*270 FILLER_16_177
*271 FILLER_16_189
*272 FILLER_16_195
*273 FILLER_16_197
*274 FILLER_16_209
*275 FILLER_16_221
*276 FILLER_16_233
*277 FILLER_16_245
*278 FILLER_16_251
*279 FILLER_16_253
*280 FILLER_16_265
*281 FILLER_16_27
*282 FILLER_16_277
*283 FILLER_16_289
*284 FILLER_16_29
*285 FILLER_16_297
*286 FILLER_16_3
*287 FILLER_16_41
*288 FILLER_16_53
*289 FILLER_16_65
*290 FILLER_16_77
*291 FILLER_16_83
*292 FILLER_16_85
*293 FILLER_16_97
*294 FILLER_17_105
*295 FILLER_17_111
*296 FILLER_17_113
*297 FILLER_17_125
*298 FILLER_17_137
*299 FILLER_17_149
*300 FILLER_17_15
*301 FILLER_17_161
*302 FILLER_17_167
*303 FILLER_17_169
*304 FILLER_17_181
*305 FILLER_17_193
*306 FILLER_17_205
*307 FILLER_17_217
*308 FILLER_17_223
*309 FILLER_17_225
*310 FILLER_17_237
*311 FILLER_17_249
*312 FILLER_17_261
*313 FILLER_17_27
*314 FILLER_17_273
*315 FILLER_17_279
*316 FILLER_17_281
*317 FILLER_17_293
*318 FILLER_17_3
*319 FILLER_17_39
*320 FILLER_17_51
*321 FILLER_17_55
*322 FILLER_17_57
*323 FILLER_17_69
*324 FILLER_17_81
*325 FILLER_17_93
*326 FILLER_18_109
*327 FILLER_18_121
*328 FILLER_18_133
*329 FILLER_18_139
*330 FILLER_18_141
*331 FILLER_18_15
*332 FILLER_18_153
*333 FILLER_18_165
*334 FILLER_18_177
*335 FILLER_18_189
*336 FILLER_18_195
*337 FILLER_18_197
*338 FILLER_18_209
*339 FILLER_18_221
*340 FILLER_18_233
*341 FILLER_18_245
*342 FILLER_18_251
*343 FILLER_18_253
*344 FILLER_18_265
*345 FILLER_18_27
*346 FILLER_18_277
*347 FILLER_18_289
*348 FILLER_18_29
*349 FILLER_18_297
*350 FILLER_18_3
*351 FILLER_18_41
*352 FILLER_18_53
*353 FILLER_18_65
*354 FILLER_18_77
*355 FILLER_18_83
*356 FILLER_18_85
*357 FILLER_18_97
*358 FILLER_19_105
*359 FILLER_19_111
*360 FILLER_19_113
*361 FILLER_19_125
*362 FILLER_19_137
*363 FILLER_19_149
*364 FILLER_19_15
*365 FILLER_19_161
*366 FILLER_19_167
*367 FILLER_19_169
*368 FILLER_19_181
*369 FILLER_19_193
*370 FILLER_19_205
*371 FILLER_19_217
*372 FILLER_19_223
*373 FILLER_19_225
*374 FILLER_19_237
*375 FILLER_19_249
*376 FILLER_19_261
*377 FILLER_19_27
*378 FILLER_19_273
*379 FILLER_19_279
*380 FILLER_19_281
*381 FILLER_19_293
*382 FILLER_19_3
*383 FILLER_19_39
*384 FILLER_19_51
*385 FILLER_19_55
*386 FILLER_19_57
*387 FILLER_19_69
*388 FILLER_19_81
*389 FILLER_19_93
*390 FILLER_1_105
*391 FILLER_1_111
*392 FILLER_1_113
*393 FILLER_1_125
*394 FILLER_1_137
*395 FILLER_1_149
*396 FILLER_1_15
*397 FILLER_1_161
*398 FILLER_1_167
*399 FILLER_1_169
*400 FILLER_1_181
*401 FILLER_1_193
*402 FILLER_1_205
*403 FILLER_1_217
*404 FILLER_1_223
*405 FILLER_1_225
*406 FILLER_1_237
*407 FILLER_1_249
*408 FILLER_1_261
*409 FILLER_1_27
*410 FILLER_1_273
*411 FILLER_1_279
*412 FILLER_1_281
*413 FILLER_1_293
*414 FILLER_1_3
*415 FILLER_1_39
*416 FILLER_1_51
*417 FILLER_1_55
*418 FILLER_1_57
*419 FILLER_1_69
*420 FILLER_1_81
*421 FILLER_1_93
*422 FILLER_20_109
*423 FILLER_20_121
*424 FILLER_20_133
*425 FILLER_20_139
*426 FILLER_20_141
*427 FILLER_20_15
*428 FILLER_20_153
*429 FILLER_20_165
*430 FILLER_20_177
*431 FILLER_20_189
*432 FILLER_20_195
*433 FILLER_20_197
*434 FILLER_20_209
*435 FILLER_20_221
*436 FILLER_20_233
*437 FILLER_20_245
*438 FILLER_20_251
*439 FILLER_20_253
*440 FILLER_20_265
*441 FILLER_20_27
*442 FILLER_20_277
*443 FILLER_20_289
*444 FILLER_20_29
*445 FILLER_20_297
*446 FILLER_20_3
*447 FILLER_20_41
*448 FILLER_20_53
*449 FILLER_20_65
*450 FILLER_20_77
*451 FILLER_20_83
*452 FILLER_20_85
*453 FILLER_20_97
*454 FILLER_21_105
*455 FILLER_21_111
*456 FILLER_21_113
*457 FILLER_21_125
*458 FILLER_21_13
*459 FILLER_21_137
*460 FILLER_21_149
*461 FILLER_21_161
*462 FILLER_21_167
*463 FILLER_21_169
*464 FILLER_21_181
*465 FILLER_21_193
*466 FILLER_21_205
*467 FILLER_21_217
*468 FILLER_21_223
*469 FILLER_21_225
*470 FILLER_21_237
*471 FILLER_21_249
*472 FILLER_21_25
*473 FILLER_21_261
*474 FILLER_21_273
*475 FILLER_21_279
*476 FILLER_21_281
*477 FILLER_21_293
*478 FILLER_21_3
*479 FILLER_21_37
*480 FILLER_21_49
*481 FILLER_21_55
*482 FILLER_21_57
*483 FILLER_21_69
*484 FILLER_21_81
*485 FILLER_21_93
*486 FILLER_22_109
*487 FILLER_22_11
*488 FILLER_22_121
*489 FILLER_22_133
*490 FILLER_22_139
*491 FILLER_22_141
*492 FILLER_22_153
*493 FILLER_22_165
*494 FILLER_22_177
*495 FILLER_22_189
*496 FILLER_22_195
*497 FILLER_22_197
*498 FILLER_22_209
*499 FILLER_22_221
*500 FILLER_22_23
*501 FILLER_22_233
*502 FILLER_22_245
*503 FILLER_22_251
*504 FILLER_22_253
*505 FILLER_22_265
*506 FILLER_22_27
*507 FILLER_22_277
*508 FILLER_22_289
*509 FILLER_22_29
*510 FILLER_22_297
*511 FILLER_22_3
*512 FILLER_22_41
*513 FILLER_22_53
*514 FILLER_22_65
*515 FILLER_22_77
*516 FILLER_22_83
*517 FILLER_22_85
*518 FILLER_22_97
*519 FILLER_23_10
*520 FILLER_23_105
*521 FILLER_23_111
*522 FILLER_23_113
*523 FILLER_23_125
*524 FILLER_23_137
*525 FILLER_23_149
*526 FILLER_23_161
*527 FILLER_23_167
*528 FILLER_23_169
*529 FILLER_23_18
*530 FILLER_23_181
*531 FILLER_23_193
*532 FILLER_23_205
*533 FILLER_23_217
*534 FILLER_23_223
*535 FILLER_23_225
*536 FILLER_23_237
*537 FILLER_23_249
*538 FILLER_23_261
*539 FILLER_23_273
*540 FILLER_23_279
*541 FILLER_23_281
*542 FILLER_23_293
*543 FILLER_23_3
*544 FILLER_23_30
*545 FILLER_23_42
*546 FILLER_23_54
*547 FILLER_23_57
*548 FILLER_23_69
*549 FILLER_23_81
*550 FILLER_23_93
*551 FILLER_24_109
*552 FILLER_24_12
*553 FILLER_24_121
*554 FILLER_24_133
*555 FILLER_24_139
*556 FILLER_24_141
*557 FILLER_24_153
*558 FILLER_24_165
*559 FILLER_24_177
*560 FILLER_24_189
*561 FILLER_24_195
*562 FILLER_24_197
*563 FILLER_24_209
*564 FILLER_24_221
*565 FILLER_24_233
*566 FILLER_24_24
*567 FILLER_24_245
*568 FILLER_24_251
*569 FILLER_24_253
*570 FILLER_24_265
*571 FILLER_24_277
*572 FILLER_24_289
*573 FILLER_24_29
*574 FILLER_24_297
*575 FILLER_24_3
*576 FILLER_24_41
*577 FILLER_24_53
*578 FILLER_24_65
*579 FILLER_24_77
*580 FILLER_24_83
*581 FILLER_24_85
*582 FILLER_24_97
*583 FILLER_25_105
*584 FILLER_25_111
*585 FILLER_25_113
*586 FILLER_25_12
*587 FILLER_25_125
*588 FILLER_25_137
*589 FILLER_25_149
*590 FILLER_25_161
*591 FILLER_25_167
*592 FILLER_25_169
*593 FILLER_25_181
*594 FILLER_25_193
*595 FILLER_25_205
*596 FILLER_25_217
*597 FILLER_25_223
*598 FILLER_25_225
*599 FILLER_25_237
*600 FILLER_25_24
*601 FILLER_25_249
*602 FILLER_25_261
*603 FILLER_25_273
*604 FILLER_25_279
*605 FILLER_25_281
*606 FILLER_25_293
*607 FILLER_25_3
*608 FILLER_25_36
*609 FILLER_25_48
*610 FILLER_25_57
*611 FILLER_25_69
*612 FILLER_25_81
*613 FILLER_25_93
*614 FILLER_26_109
*615 FILLER_26_121
*616 FILLER_26_133
*617 FILLER_26_139
*618 FILLER_26_141
*619 FILLER_26_15
*620 FILLER_26_153
*621 FILLER_26_165
*622 FILLER_26_177
*623 FILLER_26_189
*624 FILLER_26_195
*625 FILLER_26_197
*626 FILLER_26_209
*627 FILLER_26_221
*628 FILLER_26_23
*629 FILLER_26_233
*630 FILLER_26_245
*631 FILLER_26_251
*632 FILLER_26_253
*633 FILLER_26_265
*634 FILLER_26_27
*635 FILLER_26_277
*636 FILLER_26_289
*637 FILLER_26_29
*638 FILLER_26_297
*639 FILLER_26_3
*640 FILLER_26_41
*641 FILLER_26_53
*642 FILLER_26_65
*643 FILLER_26_77
*644 FILLER_26_83
*645 FILLER_26_85
*646 FILLER_26_97
*647 FILLER_27_105
*648 FILLER_27_111
*649 FILLER_27_113
*650 FILLER_27_125
*651 FILLER_27_137
*652 FILLER_27_149
*653 FILLER_27_161
*654 FILLER_27_167
*655 FILLER_27_169
*656 FILLER_27_181
*657 FILLER_27_193
*658 FILLER_27_205
*659 FILLER_27_217
*660 FILLER_27_223
*661 FILLER_27_225
*662 FILLER_27_237
*663 FILLER_27_249
*664 FILLER_27_25
*665 FILLER_27_261
*666 FILLER_27_273
*667 FILLER_27_279
*668 FILLER_27_281
*669 FILLER_27_293
*670 FILLER_27_3
*671 FILLER_27_37
*672 FILLER_27_49
*673 FILLER_27_55
*674 FILLER_27_57
*675 FILLER_27_69
*676 FILLER_27_81
*677 FILLER_27_93
*678 FILLER_28_109
*679 FILLER_28_121
*680 FILLER_28_133
*681 FILLER_28_139
*682 FILLER_28_141
*683 FILLER_28_153
*684 FILLER_28_165
*685 FILLER_28_177
*686 FILLER_28_189
*687 FILLER_28_195
*688 FILLER_28_197
*689 FILLER_28_209
*690 FILLER_28_22
*691 FILLER_28_221
*692 FILLER_28_233
*693 FILLER_28_245
*694 FILLER_28_251
*695 FILLER_28_253
*696 FILLER_28_265
*697 FILLER_28_277
*698 FILLER_28_289
*699 FILLER_28_29
*700 FILLER_28_297
*701 FILLER_28_3
*702 FILLER_28_41
*703 FILLER_28_53
*704 FILLER_28_65
*705 FILLER_28_77
*706 FILLER_28_83
*707 FILLER_28_85
*708 FILLER_28_97
*709 FILLER_29_105
*710 FILLER_29_111
*711 FILLER_29_113
*712 FILLER_29_125
*713 FILLER_29_137
*714 FILLER_29_149
*715 FILLER_29_15
*716 FILLER_29_161
*717 FILLER_29_167
*718 FILLER_29_169
*719 FILLER_29_181
*720 FILLER_29_193
*721 FILLER_29_205
*722 FILLER_29_217
*723 FILLER_29_223
*724 FILLER_29_225
*725 FILLER_29_237
*726 FILLER_29_249
*727 FILLER_29_261
*728 FILLER_29_27
*729 FILLER_29_273
*730 FILLER_29_279
*731 FILLER_29_281
*732 FILLER_29_293
*733 FILLER_29_3
*734 FILLER_29_39
*735 FILLER_29_51
*736 FILLER_29_55
*737 FILLER_29_57
*738 FILLER_29_69
*739 FILLER_29_81
*740 FILLER_29_93
*741 FILLER_2_109
*742 FILLER_2_121
*743 FILLER_2_133
*744 FILLER_2_139
*745 FILLER_2_141
*746 FILLER_2_15
*747 FILLER_2_153
*748 FILLER_2_165
*749 FILLER_2_177
*750 FILLER_2_189
*751 FILLER_2_195
*752 FILLER_2_197
*753 FILLER_2_209
*754 FILLER_2_221
*755 FILLER_2_233
*756 FILLER_2_245
*757 FILLER_2_251
*758 FILLER_2_253
*759 FILLER_2_265
*760 FILLER_2_27
*761 FILLER_2_277
*762 FILLER_2_289
*763 FILLER_2_29
*764 FILLER_2_297
*765 FILLER_2_3
*766 FILLER_2_41
*767 FILLER_2_53
*768 FILLER_2_65
*769 FILLER_2_77
*770 FILLER_2_83
*771 FILLER_2_85
*772 FILLER_2_97
*773 FILLER_30_109
*774 FILLER_30_121
*775 FILLER_30_133
*776 FILLER_30_139
*777 FILLER_30_141
*778 FILLER_30_15
*779 FILLER_30_153
*780 FILLER_30_165
*781 FILLER_30_177
*782 FILLER_30_189
*783 FILLER_30_195
*784 FILLER_30_197
*785 FILLER_30_209
*786 FILLER_30_221
*787 FILLER_30_233
*788 FILLER_30_245
*789 FILLER_30_251
*790 FILLER_30_253
*791 FILLER_30_265
*792 FILLER_30_27
*793 FILLER_30_277
*794 FILLER_30_289
*795 FILLER_30_29
*796 FILLER_30_297
*797 FILLER_30_3
*798 FILLER_30_41
*799 FILLER_30_53
*800 FILLER_30_65
*801 FILLER_30_77
*802 FILLER_30_83
*803 FILLER_30_85
*804 FILLER_30_97
*805 FILLER_31_105
*806 FILLER_31_11
*807 FILLER_31_111
*808 FILLER_31_113
*809 FILLER_31_125
*810 FILLER_31_137
*811 FILLER_31_149
*812 FILLER_31_161
*813 FILLER_31_167
*814 FILLER_31_169
*815 FILLER_31_181
*816 FILLER_31_193
*817 FILLER_31_205
*818 FILLER_31_217
*819 FILLER_31_223
*820 FILLER_31_225
*821 FILLER_31_23
*822 FILLER_31_237
*823 FILLER_31_249
*824 FILLER_31_261
*825 FILLER_31_273
*826 FILLER_31_279
*827 FILLER_31_281
*828 FILLER_31_293
*829 FILLER_31_3
*830 FILLER_31_35
*831 FILLER_31_47
*832 FILLER_31_55
*833 FILLER_31_57
*834 FILLER_31_69
*835 FILLER_31_81
*836 FILLER_31_93
*837 FILLER_32_109
*838 FILLER_32_121
*839 FILLER_32_133
*840 FILLER_32_139
*841 FILLER_32_14
*842 FILLER_32_141
*843 FILLER_32_153
*844 FILLER_32_165
*845 FILLER_32_177
*846 FILLER_32_189
*847 FILLER_32_195
*848 FILLER_32_197
*849 FILLER_32_209
*850 FILLER_32_221
*851 FILLER_32_233
*852 FILLER_32_245
*853 FILLER_32_251
*854 FILLER_32_253
*855 FILLER_32_26
*856 FILLER_32_265
*857 FILLER_32_277
*858 FILLER_32_289
*859 FILLER_32_29
*860 FILLER_32_297
*861 FILLER_32_3
*862 FILLER_32_41
*863 FILLER_32_53
*864 FILLER_32_65
*865 FILLER_32_77
*866 FILLER_32_83
*867 FILLER_32_85
*868 FILLER_32_97
*869 FILLER_33_105
*870 FILLER_33_111
*871 FILLER_33_113
*872 FILLER_33_125
*873 FILLER_33_137
*874 FILLER_33_149
*875 FILLER_33_161
*876 FILLER_33_167
*877 FILLER_33_169
*878 FILLER_33_181
*879 FILLER_33_193
*880 FILLER_33_205
*881 FILLER_33_217
*882 FILLER_33_223
*883 FILLER_33_225
*884 FILLER_33_237
*885 FILLER_33_249
*886 FILLER_33_261
*887 FILLER_33_273
*888 FILLER_33_279
*889 FILLER_33_281
*890 FILLER_33_293
*891 FILLER_33_3
*892 FILLER_33_31
*893 FILLER_33_43
*894 FILLER_33_55
*895 FILLER_33_57
*896 FILLER_33_69
*897 FILLER_33_81
*898 FILLER_33_93
*899 FILLER_34_109
*900 FILLER_34_121
*901 FILLER_34_13
*902 FILLER_34_133
*903 FILLER_34_139
*904 FILLER_34_141
*905 FILLER_34_153
*906 FILLER_34_165
*907 FILLER_34_177
*908 FILLER_34_189
*909 FILLER_34_195
*910 FILLER_34_197
*911 FILLER_34_209
*912 FILLER_34_221
*913 FILLER_34_233
*914 FILLER_34_245
*915 FILLER_34_25
*916 FILLER_34_251
*917 FILLER_34_253
*918 FILLER_34_265
*919 FILLER_34_277
*920 FILLER_34_289
*921 FILLER_34_29
*922 FILLER_34_297
*923 FILLER_34_3
*924 FILLER_34_41
*925 FILLER_34_53
*926 FILLER_34_65
*927 FILLER_34_77
*928 FILLER_34_83
*929 FILLER_34_85
*930 FILLER_34_97
*931 FILLER_35_105
*932 FILLER_35_11
*933 FILLER_35_111
*934 FILLER_35_113
*935 FILLER_35_125
*936 FILLER_35_137
*937 FILLER_35_149
*938 FILLER_35_161
*939 FILLER_35_167
*940 FILLER_35_169
*941 FILLER_35_181
*942 FILLER_35_193
*943 FILLER_35_205
*944 FILLER_35_217
*945 FILLER_35_223
*946 FILLER_35_225
*947 FILLER_35_23
*948 FILLER_35_237
*949 FILLER_35_249
*950 FILLER_35_261
*951 FILLER_35_273
*952 FILLER_35_279
*953 FILLER_35_281
*954 FILLER_35_293
*955 FILLER_35_3
*956 FILLER_35_35
*957 FILLER_35_47
*958 FILLER_35_55
*959 FILLER_35_57
*960 FILLER_35_69
*961 FILLER_35_81
*962 FILLER_35_93
*963 FILLER_36_109
*964 FILLER_36_121
*965 FILLER_36_133
*966 FILLER_36_139
*967 FILLER_36_141
*968 FILLER_36_153
*969 FILLER_36_165
*970 FILLER_36_177
*971 FILLER_36_189
*972 FILLER_36_195
*973 FILLER_36_197
*974 FILLER_36_209
*975 FILLER_36_221
*976 FILLER_36_233
*977 FILLER_36_245
*978 FILLER_36_25
*979 FILLER_36_251
*980 FILLER_36_253
*981 FILLER_36_265
*982 FILLER_36_277
*983 FILLER_36_289
*984 FILLER_36_29
*985 FILLER_36_297
*986 FILLER_36_3
*987 FILLER_36_41
*988 FILLER_36_53
*989 FILLER_36_65
*990 FILLER_36_77
*991 FILLER_36_83
*992 FILLER_36_85
*993 FILLER_36_97
*994 FILLER_37_105
*995 FILLER_37_111
*996 FILLER_37_113
*997 FILLER_37_125
*998 FILLER_37_137
*999 FILLER_37_149
*1000 FILLER_37_15
*1001 FILLER_37_161
*1002 FILLER_37_167
*1003 FILLER_37_169
*1004 FILLER_37_181
*1005 FILLER_37_193
*1006 FILLER_37_205
*1007 FILLER_37_217
*1008 FILLER_37_223
*1009 FILLER_37_225
*1010 FILLER_37_237
*1011 FILLER_37_249
*1012 FILLER_37_261
*1013 FILLER_37_27
*1014 FILLER_37_273
*1015 FILLER_37_279
*1016 FILLER_37_281
*1017 FILLER_37_293
*1018 FILLER_37_3
*1019 FILLER_37_39
*1020 FILLER_37_51
*1021 FILLER_37_55
*1022 FILLER_37_57
*1023 FILLER_37_69
*1024 FILLER_37_81
*1025 FILLER_37_93
*1026 FILLER_38_109
*1027 FILLER_38_121
*1028 FILLER_38_133
*1029 FILLER_38_139
*1030 FILLER_38_141
*1031 FILLER_38_15
*1032 FILLER_38_153
*1033 FILLER_38_165
*1034 FILLER_38_177
*1035 FILLER_38_189
*1036 FILLER_38_195
*1037 FILLER_38_197
*1038 FILLER_38_209
*1039 FILLER_38_221
*1040 FILLER_38_233
*1041 FILLER_38_245
*1042 FILLER_38_251
*1043 FILLER_38_253
*1044 FILLER_38_265
*1045 FILLER_38_27
*1046 FILLER_38_277
*1047 FILLER_38_289
*1048 FILLER_38_29
*1049 FILLER_38_297
*1050 FILLER_38_3
*1051 FILLER_38_41
*1052 FILLER_38_53
*1053 FILLER_38_65
*1054 FILLER_38_77
*1055 FILLER_38_83
*1056 FILLER_38_85
*1057 FILLER_38_97
*1058 FILLER_39_105
*1059 FILLER_39_111
*1060 FILLER_39_113
*1061 FILLER_39_125
*1062 FILLER_39_137
*1063 FILLER_39_149
*1064 FILLER_39_15
*1065 FILLER_39_161
*1066 FILLER_39_167
*1067 FILLER_39_169
*1068 FILLER_39_181
*1069 FILLER_39_193
*1070 FILLER_39_205
*1071 FILLER_39_217
*1072 FILLER_39_223
*1073 FILLER_39_225
*1074 FILLER_39_237
*1075 FILLER_39_249
*1076 FILLER_39_261
*1077 FILLER_39_27
*1078 FILLER_39_273
*1079 FILLER_39_279
*1080 FILLER_39_281
*1081 FILLER_39_293
*1082 FILLER_39_3
*1083 FILLER_39_39
*1084 FILLER_39_51
*1085 FILLER_39_55
*1086 FILLER_39_57
*1087 FILLER_39_69
*1088 FILLER_39_81
*1089 FILLER_39_93
*1090 FILLER_3_105
*1091 FILLER_3_111
*1092 FILLER_3_113
*1093 FILLER_3_125
*1094 FILLER_3_137
*1095 FILLER_3_149
*1096 FILLER_3_15
*1097 FILLER_3_161
*1098 FILLER_3_167
*1099 FILLER_3_169
*1100 FILLER_3_181
*1101 FILLER_3_193
*1102 FILLER_3_205
*1103 FILLER_3_217
*1104 FILLER_3_223
*1105 FILLER_3_225
*1106 FILLER_3_237
*1107 FILLER_3_249
*1108 FILLER_3_261
*1109 FILLER_3_27
*1110 FILLER_3_273
*1111 FILLER_3_279
*1112 FILLER_3_281
*1113 FILLER_3_293
*1114 FILLER_3_3
*1115 FILLER_3_39
*1116 FILLER_3_51
*1117 FILLER_3_55
*1118 FILLER_3_57
*1119 FILLER_3_69
*1120 FILLER_3_81
*1121 FILLER_3_93
*1122 FILLER_40_109
*1123 FILLER_40_121
*1124 FILLER_40_133
*1125 FILLER_40_139
*1126 FILLER_40_141
*1127 FILLER_40_15
*1128 FILLER_40_153
*1129 FILLER_40_165
*1130 FILLER_40_177
*1131 FILLER_40_189
*1132 FILLER_40_195
*1133 FILLER_40_197
*1134 FILLER_40_209
*1135 FILLER_40_221
*1136 FILLER_40_233
*1137 FILLER_40_245
*1138 FILLER_40_251
*1139 FILLER_40_253
*1140 FILLER_40_265
*1141 FILLER_40_27
*1142 FILLER_40_277
*1143 FILLER_40_289
*1144 FILLER_40_29
*1145 FILLER_40_297
*1146 FILLER_40_3
*1147 FILLER_40_41
*1148 FILLER_40_53
*1149 FILLER_40_65
*1150 FILLER_40_77
*1151 FILLER_40_83
*1152 FILLER_40_85
*1153 FILLER_40_97
*1154 FILLER_41_105
*1155 FILLER_41_111
*1156 FILLER_41_113
*1157 FILLER_41_125
*1158 FILLER_41_137
*1159 FILLER_41_149
*1160 FILLER_41_15
*1161 FILLER_41_161
*1162 FILLER_41_167
*1163 FILLER_41_169
*1164 FILLER_41_181
*1165 FILLER_41_193
*1166 FILLER_41_205
*1167 FILLER_41_217
*1168 FILLER_41_223
*1169 FILLER_41_225
*1170 FILLER_41_237
*1171 FILLER_41_249
*1172 FILLER_41_261
*1173 FILLER_41_27
*1174 FILLER_41_273
*1175 FILLER_41_279
*1176 FILLER_41_281
*1177 FILLER_41_293
*1178 FILLER_41_3
*1179 FILLER_41_39
*1180 FILLER_41_51
*1181 FILLER_41_55
*1182 FILLER_41_57
*1183 FILLER_41_69
*1184 FILLER_41_81
*1185 FILLER_41_93
*1186 FILLER_42_109
*1187 FILLER_42_121
*1188 FILLER_42_133
*1189 FILLER_42_139
*1190 FILLER_42_141
*1191 FILLER_42_15
*1192 FILLER_42_153
*1193 FILLER_42_165
*1194 FILLER_42_177
*1195 FILLER_42_189
*1196 FILLER_42_195
*1197 FILLER_42_197
*1198 FILLER_42_209
*1199 FILLER_42_221
*1200 FILLER_42_233
*1201 FILLER_42_245
*1202 FILLER_42_251
*1203 FILLER_42_253
*1204 FILLER_42_265
*1205 FILLER_42_27
*1206 FILLER_42_277
*1207 FILLER_42_289
*1208 FILLER_42_29
*1209 FILLER_42_297
*1210 FILLER_42_3
*1211 FILLER_42_41
*1212 FILLER_42_53
*1213 FILLER_42_65
*1214 FILLER_42_77
*1215 FILLER_42_83
*1216 FILLER_42_85
*1217 FILLER_42_97
*1218 FILLER_43_105
*1219 FILLER_43_111
*1220 FILLER_43_113
*1221 FILLER_43_125
*1222 FILLER_43_137
*1223 FILLER_43_14
*1224 FILLER_43_149
*1225 FILLER_43_161
*1226 FILLER_43_167
*1227 FILLER_43_169
*1228 FILLER_43_181
*1229 FILLER_43_193
*1230 FILLER_43_205
*1231 FILLER_43_217
*1232 FILLER_43_223
*1233 FILLER_43_225
*1234 FILLER_43_237
*1235 FILLER_43_249
*1236 FILLER_43_26
*1237 FILLER_43_261
*1238 FILLER_43_273
*1239 FILLER_43_279
*1240 FILLER_43_281
*1241 FILLER_43_293
*1242 FILLER_43_3
*1243 FILLER_43_38
*1244 FILLER_43_50
*1245 FILLER_43_57
*1246 FILLER_43_69
*1247 FILLER_43_81
*1248 FILLER_43_93
*1249 FILLER_44_109
*1250 FILLER_44_121
*1251 FILLER_44_133
*1252 FILLER_44_139
*1253 FILLER_44_141
*1254 FILLER_44_15
*1255 FILLER_44_153
*1256 FILLER_44_165
*1257 FILLER_44_177
*1258 FILLER_44_189
*1259 FILLER_44_195
*1260 FILLER_44_197
*1261 FILLER_44_209
*1262 FILLER_44_221
*1263 FILLER_44_233
*1264 FILLER_44_245
*1265 FILLER_44_251
*1266 FILLER_44_253
*1267 FILLER_44_265
*1268 FILLER_44_27
*1269 FILLER_44_277
*1270 FILLER_44_289
*1271 FILLER_44_29
*1272 FILLER_44_297
*1273 FILLER_44_3
*1274 FILLER_44_41
*1275 FILLER_44_53
*1276 FILLER_44_65
*1277 FILLER_44_77
*1278 FILLER_44_83
*1279 FILLER_44_85
*1280 FILLER_44_97
*1281 FILLER_45_105
*1282 FILLER_45_111
*1283 FILLER_45_113
*1284 FILLER_45_125
*1285 FILLER_45_137
*1286 FILLER_45_149
*1287 FILLER_45_15
*1288 FILLER_45_161
*1289 FILLER_45_167
*1290 FILLER_45_169
*1291 FILLER_45_181
*1292 FILLER_45_193
*1293 FILLER_45_205
*1294 FILLER_45_217
*1295 FILLER_45_223
*1296 FILLER_45_225
*1297 FILLER_45_237
*1298 FILLER_45_249
*1299 FILLER_45_261
*1300 FILLER_45_27
*1301 FILLER_45_273
*1302 FILLER_45_279
*1303 FILLER_45_281
*1304 FILLER_45_293
*1305 FILLER_45_3
*1306 FILLER_45_39
*1307 FILLER_45_51
*1308 FILLER_45_55
*1309 FILLER_45_57
*1310 FILLER_45_69
*1311 FILLER_45_81
*1312 FILLER_45_93
*1313 FILLER_46_109
*1314 FILLER_46_121
*1315 FILLER_46_133
*1316 FILLER_46_139
*1317 FILLER_46_141
*1318 FILLER_46_15
*1319 FILLER_46_153
*1320 FILLER_46_165
*1321 FILLER_46_177
*1322 FILLER_46_189
*1323 FILLER_46_195
*1324 FILLER_46_197
*1325 FILLER_46_209
*1326 FILLER_46_221
*1327 FILLER_46_233
*1328 FILLER_46_245
*1329 FILLER_46_251
*1330 FILLER_46_253
*1331 FILLER_46_265
*1332 FILLER_46_27
*1333 FILLER_46_277
*1334 FILLER_46_289
*1335 FILLER_46_29
*1336 FILLER_46_297
*1337 FILLER_46_3
*1338 FILLER_46_41
*1339 FILLER_46_53
*1340 FILLER_46_65
*1341 FILLER_46_77
*1342 FILLER_46_83
*1343 FILLER_46_85
*1344 FILLER_46_97
*1345 FILLER_47_105
*1346 FILLER_47_111
*1347 FILLER_47_113
*1348 FILLER_47_125
*1349 FILLER_47_137
*1350 FILLER_47_149
*1351 FILLER_47_15
*1352 FILLER_47_161
*1353 FILLER_47_167
*1354 FILLER_47_169
*1355 FILLER_47_181
*1356 FILLER_47_193
*1357 FILLER_47_205
*1358 FILLER_47_217
*1359 FILLER_47_223
*1360 FILLER_47_225
*1361 FILLER_47_237
*1362 FILLER_47_249
*1363 FILLER_47_261
*1364 FILLER_47_27
*1365 FILLER_47_273
*1366 FILLER_47_279
*1367 FILLER_47_281
*1368 FILLER_47_293
*1369 FILLER_47_3
*1370 FILLER_47_39
*1371 FILLER_47_51
*1372 FILLER_47_55
*1373 FILLER_47_57
*1374 FILLER_47_69
*1375 FILLER_47_81
*1376 FILLER_47_93
*1377 FILLER_48_109
*1378 FILLER_48_121
*1379 FILLER_48_133
*1380 FILLER_48_139
*1381 FILLER_48_141
*1382 FILLER_48_15
*1383 FILLER_48_153
*1384 FILLER_48_165
*1385 FILLER_48_177
*1386 FILLER_48_189
*1387 FILLER_48_195
*1388 FILLER_48_197
*1389 FILLER_48_209
*1390 FILLER_48_221
*1391 FILLER_48_233
*1392 FILLER_48_245
*1393 FILLER_48_251
*1394 FILLER_48_253
*1395 FILLER_48_265
*1396 FILLER_48_27
*1397 FILLER_48_277
*1398 FILLER_48_289
*1399 FILLER_48_29
*1400 FILLER_48_297
*1401 FILLER_48_3
*1402 FILLER_48_41
*1403 FILLER_48_53
*1404 FILLER_48_65
*1405 FILLER_48_77
*1406 FILLER_48_83
*1407 FILLER_48_85
*1408 FILLER_48_97
*1409 FILLER_49_105
*1410 FILLER_49_111
*1411 FILLER_49_113
*1412 FILLER_49_125
*1413 FILLER_49_137
*1414 FILLER_49_149
*1415 FILLER_49_15
*1416 FILLER_49_161
*1417 FILLER_49_167
*1418 FILLER_49_169
*1419 FILLER_49_181
*1420 FILLER_49_193
*1421 FILLER_49_205
*1422 FILLER_49_217
*1423 FILLER_49_223
*1424 FILLER_49_225
*1425 FILLER_49_237
*1426 FILLER_49_249
*1427 FILLER_49_261
*1428 FILLER_49_27
*1429 FILLER_49_273
*1430 FILLER_49_279
*1431 FILLER_49_281
*1432 FILLER_49_293
*1433 FILLER_49_3
*1434 FILLER_49_39
*1435 FILLER_49_51
*1436 FILLER_49_55
*1437 FILLER_49_57
*1438 FILLER_49_69
*1439 FILLER_49_81
*1440 FILLER_49_93
*1441 FILLER_4_109
*1442 FILLER_4_121
*1443 FILLER_4_133
*1444 FILLER_4_139
*1445 FILLER_4_141
*1446 FILLER_4_15
*1447 FILLER_4_153
*1448 FILLER_4_165
*1449 FILLER_4_177
*1450 FILLER_4_189
*1451 FILLER_4_195
*1452 FILLER_4_197
*1453 FILLER_4_209
*1454 FILLER_4_221
*1455 FILLER_4_233
*1456 FILLER_4_245
*1457 FILLER_4_251
*1458 FILLER_4_253
*1459 FILLER_4_265
*1460 FILLER_4_27
*1461 FILLER_4_277
*1462 FILLER_4_289
*1463 FILLER_4_29
*1464 FILLER_4_297
*1465 FILLER_4_3
*1466 FILLER_4_41
*1467 FILLER_4_53
*1468 FILLER_4_65
*1469 FILLER_4_77
*1470 FILLER_4_83
*1471 FILLER_4_85
*1472 FILLER_4_97
*1473 FILLER_50_109
*1474 FILLER_50_121
*1475 FILLER_50_133
*1476 FILLER_50_139
*1477 FILLER_50_141
*1478 FILLER_50_15
*1479 FILLER_50_153
*1480 FILLER_50_165
*1481 FILLER_50_177
*1482 FILLER_50_189
*1483 FILLER_50_195
*1484 FILLER_50_197
*1485 FILLER_50_209
*1486 FILLER_50_221
*1487 FILLER_50_233
*1488 FILLER_50_245
*1489 FILLER_50_251
*1490 FILLER_50_253
*1491 FILLER_50_265
*1492 FILLER_50_27
*1493 FILLER_50_277
*1494 FILLER_50_289
*1495 FILLER_50_29
*1496 FILLER_50_297
*1497 FILLER_50_3
*1498 FILLER_50_41
*1499 FILLER_50_53
*1500 FILLER_50_65
*1501 FILLER_50_77
*1502 FILLER_50_83
*1503 FILLER_50_85
*1504 FILLER_50_97
*1505 FILLER_51_105
*1506 FILLER_51_111
*1507 FILLER_51_113
*1508 FILLER_51_125
*1509 FILLER_51_137
*1510 FILLER_51_149
*1511 FILLER_51_15
*1512 FILLER_51_161
*1513 FILLER_51_167
*1514 FILLER_51_169
*1515 FILLER_51_181
*1516 FILLER_51_193
*1517 FILLER_51_205
*1518 FILLER_51_217
*1519 FILLER_51_223
*1520 FILLER_51_225
*1521 FILLER_51_237
*1522 FILLER_51_249
*1523 FILLER_51_261
*1524 FILLER_51_27
*1525 FILLER_51_273
*1526 FILLER_51_279
*1527 FILLER_51_281
*1528 FILLER_51_293
*1529 FILLER_51_3
*1530 FILLER_51_39
*1531 FILLER_51_51
*1532 FILLER_51_55
*1533 FILLER_51_57
*1534 FILLER_51_69
*1535 FILLER_51_81
*1536 FILLER_51_93
*1537 FILLER_52_109
*1538 FILLER_52_121
*1539 FILLER_52_133
*1540 FILLER_52_139
*1541 FILLER_52_141
*1542 FILLER_52_15
*1543 FILLER_52_153
*1544 FILLER_52_165
*1545 FILLER_52_177
*1546 FILLER_52_189
*1547 FILLER_52_195
*1548 FILLER_52_197
*1549 FILLER_52_209
*1550 FILLER_52_221
*1551 FILLER_52_233
*1552 FILLER_52_245
*1553 FILLER_52_251
*1554 FILLER_52_253
*1555 FILLER_52_265
*1556 FILLER_52_27
*1557 FILLER_52_277
*1558 FILLER_52_289
*1559 FILLER_52_29
*1560 FILLER_52_297
*1561 FILLER_52_3
*1562 FILLER_52_41
*1563 FILLER_52_53
*1564 FILLER_52_65
*1565 FILLER_52_77
*1566 FILLER_52_83
*1567 FILLER_52_85
*1568 FILLER_52_97
*1569 FILLER_53_10
*1570 FILLER_53_105
*1571 FILLER_53_111
*1572 FILLER_53_113
*1573 FILLER_53_125
*1574 FILLER_53_137
*1575 FILLER_53_149
*1576 FILLER_53_161
*1577 FILLER_53_167
*1578 FILLER_53_169
*1579 FILLER_53_181
*1580 FILLER_53_193
*1581 FILLER_53_205
*1582 FILLER_53_217
*1583 FILLER_53_22
*1584 FILLER_53_223
*1585 FILLER_53_225
*1586 FILLER_53_237