*SPEF "ieee 1481-1999"
*DESIGN "browndeer_rv8u"
*DATE "11:11:11 Fri 11 11, 1111"
*VENDOR "OpenRCX"
*PROGRAM "Parallel Extraction"
*VERSION "1.0"
*DESIGN_FLOW "NAME_SCOPE LOCAL" "PIN_CAP NONE"
*DIVIDER /
*DELIMITER :
*BUS_DELIMITER []
*T_UNIT 1 NS
*C_UNIT 1 PF
*R_UNIT 1 OHM
*L_UNIT 1 HENRY

*NAME_MAP
*1 io_in[0]
*2 io_in[1]
*3 io_in[2]
*4 io_in[3]
*5 io_in[4]
*6 io_in[5]
*7 io_in[6]
*8 io_in[7]
*9 io_out[0]
*10 io_out[1]
*11 io_out[2]
*12 io_out[3]
*13 io_out[4]
*14 io_out[5]
*15 io_out[6]
*16 io_out[7]
*19 _0000_
*20 _0001_
*21 _0002_
*22 _0003_
*23 _0004_
*24 _0005_
*25 _0006_
*26 _0007_
*27 _0008_
*28 _0009_
*29 _0010_
*30 _0011_
*31 _0012_
*32 _0013_
*33 _0014_
*34 _0015_
*35 _0016_
*36 _0017_
*37 _0018_
*38 _0019_
*39 _0020_
*40 _0021_
*41 _0022_
*42 _0023_
*43 _0024_
*44 _0025_
*45 _0026_
*46 _0027_
*47 _0028_
*48 _0029_
*49 _0030_
*50 _0031_
*51 _0032_
*52 _0033_
*53 _0034_
*54 _0035_
*55 _0036_
*56 _0037_
*57 _0038_
*58 _0039_
*59 _0040_
*60 _0041_
*61 _0042_
*62 _0043_
*63 _0044_
*64 _0045_
*65 _0046_
*66 _0047_
*67 _0048_
*68 _0049_
*69 _0050_
*70 _0051_
*71 _0052_
*72 _0053_
*73 _0054_
*74 _0055_
*75 _0056_
*76 _0057_
*77 _0058_
*78 _0059_
*79 _0060_
*80 _0061_
*81 _0062_
*82 _0063_
*83 _0064_
*84 _0065_
*85 _0066_
*86 _0067_
*87 _0068_
*88 _0069_
*89 _0070_
*90 _0071_
*91 _0072_
*92 _0073_
*93 _0074_
*94 _0075_
*95 _0076_
*96 _0077_
*97 _0078_
*98 _0079_
*99 _0080_
*100 _0081_
*101 _0082_
*102 _0083_
*103 _0084_
*104 _0085_
*105 _0086_
*106 _0087_
*107 _0088_
*108 _0089_
*109 _0090_
*110 _0091_
*111 _0092_
*112 _0093_
*113 _0094_
*114 _0095_
*115 _0096_
*116 _0097_
*117 _0098_
*118 _0099_
*119 _0100_
*120 _0101_
*121 _0102_
*122 _0103_
*123 _0104_
*124 _0105_
*125 _0106_
*126 _0107_
*127 _0108_
*128 _0109_
*129 _0110_
*130 _0111_
*131 _0112_
*132 _0113_
*133 _0114_
*134 _0115_
*135 _0116_
*136 _0117_
*137 _0118_
*138 _0119_
*139 _0120_
*140 _0121_
*141 _0122_
*142 _0123_
*143 _0124_
*144 _0125_
*145 _0126_
*146 _0127_
*147 _0128_
*148 _0129_
*149 _0130_
*150 _0131_
*151 _0132_
*152 _0133_
*153 _0134_
*154 _0135_
*155 _0136_
*156 _0137_
*157 _0138_
*158 _0139_
*159 _0140_
*160 _0141_
*161 _0142_
*162 _0143_
*163 _0144_
*164 _0145_
*165 _0146_
*166 _0147_
*167 _0149_
*168 _0150_
*169 _0151_
*170 _0152_
*171 _0153_
*172 _0154_
*173 _0155_
*174 _0156_
*175 _0157_
*176 _0158_
*177 _0159_
*178 _0160_
*179 _0161_
*180 _0162_
*181 _0163_
*182 _0164_
*183 _0165_
*184 _0166_
*185 _0167_
*186 _0168_
*187 _0169_
*188 _0170_
*189 _0171_
*190 _0172_
*191 _0173_
*192 _0174_
*193 _0175_
*194 _0176_
*195 _0177_
*196 _0178_
*197 _0179_
*198 _0180_
*199 _0181_
*200 _0182_
*201 _0183_
*202 _0184_
*203 _0185_
*204 _0186_
*205 _0187_
*206 _0188_
*207 _0189_
*208 _0190_
*209 _0191_
*210 _0192_
*211 _0193_
*212 _0194_
*213 _0195_
*214 _0196_
*215 _0197_
*216 _0198_
*217 _0199_
*218 _0200_
*219 _0201_
*220 _0202_
*221 _0203_
*222 _0204_
*223 _0205_
*224 _0206_
*225 _0207_
*226 _0208_
*227 _0209_
*228 _0210_
*229 _0211_
*230 _0212_
*231 _0213_
*232 _0214_
*233 _0215_
*234 _0216_
*235 _0217_
*236 _0218_
*237 _0219_
*238 _0220_
*239 _0221_
*240 _0222_
*241 _0223_
*242 _0224_
*243 _0225_
*244 _0226_
*245 _0227_
*246 _0228_
*247 _0229_
*248 _0230_
*249 _0231_
*250 _0232_
*251 _0233_
*252 _0234_
*253 _0235_
*254 _0236_
*255 _0237_
*256 _0238_
*257 _0239_
*258 _0240_
*259 _0241_
*260 _0242_
*261 _0243_
*262 _0244_
*263 _0245_
*264 _0246_
*265 _0247_
*266 _0248_
*267 _0249_
*268 _0250_
*269 _0251_
*270 _0252_
*271 _0253_
*272 _0254_
*273 _0255_
*274 _0256_
*275 _0257_
*276 _0258_
*277 _0259_
*278 _0260_
*279 _0261_
*280 _0262_
*281 _0263_
*282 _0264_
*283 _0265_
*284 _0266_
*285 _0267_
*286 _0268_
*287 _0269_
*288 _0270_
*289 _0271_
*290 _0272_
*291 _0273_
*292 _0274_
*293 _0275_
*294 _0276_
*295 _0277_
*296 _0278_
*297 _0279_
*298 _0280_
*299 _0281_
*300 _0282_
*301 _0283_
*302 _0284_
*303 _0285_
*304 _0286_
*305 _0287_
*306 _0288_
*307 _0289_
*308 _0290_
*309 _0291_
*310 _0292_
*311 _0293_
*312 _0294_
*313 _0295_
*314 _0296_
*315 _0297_
*316 _0298_
*317 _0299_
*318 _0300_
*319 _0301_
*320 _0302_
*321 _0303_
*322 _0304_
*323 _0305_
*324 _0306_
*325 _0307_
*326 _0308_
*327 _0309_
*328 _0310_
*329 _0311_
*330 _0312_
*331 _0313_
*332 _0314_
*333 _0315_
*334 _0316_
*335 _0317_
*336 _0318_
*337 _0319_
*338 _0320_
*339 _0321_
*340 _0322_
*341 _0323_
*342 _0324_
*343 _0325_
*344 _0326_
*345 _0327_
*346 _0328_
*347 _0329_
*348 _0330_
*349 _0331_
*350 _0332_
*351 _0333_
*352 _0334_
*353 _0335_
*354 _0336_
*355 _0337_
*356 _0338_
*357 _0339_
*358 _0340_
*359 _0341_
*360 _0342_
*361 _0343_
*362 _0344_
*363 _0345_
*364 _0346_
*365 _0347_
*366 _0348_
*367 _0349_
*368 _0350_
*369 _0351_
*370 _0352_
*371 _0353_
*372 _0354_
*373 _0355_
*374 _0356_
*375 _0357_
*376 _0358_
*377 _0359_
*378 _0360_
*379 _0361_
*380 _0362_
*381 _0363_
*382 _0364_
*383 _0365_
*384 _0366_
*385 _0367_
*386 _0368_
*387 _0369_
*388 _0370_
*389 _0371_
*390 _0372_
*391 _0373_
*392 _0374_
*393 _0375_
*394 _0376_
*395 _0377_
*396 _0378_
*397 _0379_
*398 _0380_
*399 _0381_
*400 _0382_
*401 _0383_
*402 _0384_
*403 _0385_
*404 _0386_
*405 _0387_
*406 _0388_
*407 _0389_
*408 _0390_
*409 _0391_
*410 _0392_
*411 _0393_
*412 _0394_
*413 _0395_
*414 _0396_
*415 _0397_
*416 _0398_
*417 _0399_
*418 _0400_
*419 _0401_
*420 _0402_
*421 _0403_
*422 _0404_
*423 _0405_
*424 _0406_
*425 _0407_
*426 _0408_
*427 _0409_
*428 _0410_
*429 _0411_
*430 _0412_
*431 _0413_
*432 _0414_
*433 _0415_
*434 _0416_
*435 _0417_
*436 _0418_
*437 _0419_
*438 _0420_
*439 _0421_
*440 _0422_
*441 _0423_
*442 _0424_
*443 _0425_
*444 _0426_
*445 _0427_
*446 _0428_
*447 _0429_
*448 _0430_
*449 _0431_
*450 _0432_
*451 _0433_
*452 _0434_
*453 _0435_
*454 _0436_
*455 _0437_
*456 _0438_
*457 _0439_
*458 _0440_
*459 _0441_
*460 _0442_
*461 _0443_
*462 _0444_
*463 _0445_
*464 _0446_
*465 _0447_
*466 _0448_
*467 _0449_
*468 _0450_
*469 _0451_
*470 _0452_
*471 _0453_
*472 _0454_
*473 _0455_
*474 _0456_
*475 _0457_
*476 _0458_
*477 _0459_
*478 _0460_
*479 _0461_
*480 _0462_
*481 _0463_
*482 _0464_
*483 _0465_
*484 _0466_
*485 _0467_
*486 _0468_
*487 _0469_
*488 _0470_
*489 _0471_
*490 _0472_
*491 _0473_
*492 _0474_
*493 _0475_
*494 _0476_
*495 _0477_
*496 _0478_
*497 _0479_
*498 _0480_
*499 _0481_
*500 _0482_
*501 _0483_
*502 _0484_
*503 _0485_
*504 _0486_
*505 _0487_
*506 _0488_
*507 _0489_
*508 _0490_
*509 _0491_
*510 _0492_
*511 _0493_
*512 _0494_
*513 _0495_
*514 _0496_
*515 _0497_
*516 _0498_
*517 _0499_
*518 _0500_
*519 _0501_
*520 _0502_
*521 _0503_
*522 _0504_
*523 _0505_
*524 _0506_
*525 _0507_
*526 _0508_
*527 _0509_
*528 _0510_
*529 _0511_
*530 _0512_
*531 _0513_
*532 _0514_
*533 _0515_
*534 _0516_
*535 _0517_
*536 _0518_
*537 _0519_
*538 _0520_
*539 _0521_
*540 _0522_
*541 _0523_
*542 _0524_
*543 _0525_
*544 _0526_
*545 _0527_
*546 _0528_
*547 _0529_
*548 _0530_
*549 _0531_
*550 _0532_
*551 _0533_
*552 _0534_
*553 _0535_
*554 _0536_
*555 _0537_
*556 _0538_
*557 _0539_
*558 _0540_
*559 _0541_
*560 _0542_
*561 _0543_
*562 _0544_
*563 _0545_
*564 _0546_
*565 _0547_
*566 _0548_
*567 _0549_
*568 _0550_
*569 _0551_
*570 _0552_
*571 _0553_
*572 _0554_
*573 _0555_
*574 _0556_
*575 _0557_
*576 _0558_
*577 _0559_
*578 _0560_
*579 _0561_
*580 _0562_
*581 _0563_
*582 _0564_
*583 _0565_
*584 _0566_
*585 _0567_
*586 _0568_
*587 _0569_
*588 _0570_
*589 _0571_
*590 _0572_
*591 _0573_
*592 _0574_
*593 _0575_
*594 _0576_
*595 _0577_
*596 _0578_
*597 _0579_
*598 _0580_
*599 _0581_
*600 _0582_
*601 _0583_
*602 _0584_
*603 _0585_
*604 _0586_
*605 _0587_
*606 _0588_
*607 _0589_
*608 _0590_
*609 _0591_
*610 _0592_
*611 _0593_
*612 _0594_
*613 _0595_
*614 _0596_
*615 _0597_
*616 _0598_
*617 _0599_
*618 _0600_
*619 _0601_
*620 _0602_
*621 _0603_
*622 _0604_
*623 _0605_
*624 _0606_
*625 _0607_
*626 _0608_
*627 _0609_
*628 _0610_
*629 _0611_
*630 _0612_
*631 _0613_
*632 _0614_
*633 _0615_
*634 _0616_
*635 _0617_
*636 _0618_
*637 _0619_
*638 _0620_
*639 _0621_
*640 _0622_
*641 _0623_
*642 _0624_
*643 _0625_
*644 _0626_
*645 _0627_
*646 _0628_
*647 _0629_
*648 _0630_
*649 _0631_
*650 _0632_
*651 _0633_
*652 _0634_
*653 _0635_
*654 _0636_
*655 _0637_
*656 _0638_
*657 _0639_
*658 _0640_
*659 _0641_
*660 _0642_
*661 _0643_
*662 _0644_
*663 _0645_
*664 _0646_
*665 _0647_
*666 _0648_
*667 _0649_
*668 _0650_
*669 _0651_
*670 _0652_
*671 _0653_
*672 _0654_
*673 _0655_
*674 _0656_
*675 _0657_
*676 _0658_
*677 _0659_
*678 _0660_
*679 _0661_
*680 _0662_
*681 _0663_
*682 _0664_
*683 _0665_
*684 _0666_
*685 _0667_
*686 _0668_
*687 _0669_
*688 _0670_
*689 _0671_
*690 _0672_
*691 _0673_
*692 _0674_
*693 _0675_
*694 _0676_
*695 _0677_
*696 _0678_
*697 _0679_
*698 _0680_
*699 _0681_
*700 _0682_
*701 _0683_
*702 _0684_
*703 _0685_
*704 _0686_
*705 _0687_
*706 _0688_
*707 _0689_
*708 _0690_
*709 _0691_
*710 _0692_
*711 _0693_
*712 _0694_
*713 _0695_
*714 _0696_
*715 _0697_
*716 _0698_
*717 _0699_
*718 _0700_
*719 _0701_
*720 _0702_
*721 _0703_
*722 _0704_
*723 _0705_
*724 _0706_
*725 _0707_
*726 _0708_
*727 _0709_
*728 _0710_
*729 _0711_
*730 _0712_
*731 _0713_
*732 _0714_
*733 _0715_
*734 _0716_
*735 _0717_
*736 _0718_
*737 _0719_
*738 _0720_
*739 _0721_
*740 _0722_
*741 _0723_
*742 _0724_
*743 _0725_
*744 _0726_
*745 _0727_
*746 _0728_
*747 _0729_
*748 _0730_
*749 _0731_
*750 _0732_
*751 _0733_
*752 _0734_
*753 _0735_
*754 _0736_
*755 _0737_
*756 _0738_
*757 _0739_
*758 _0740_
*759 _0741_
*760 _0742_
*761 _0743_
*762 _0744_
*763 _0745_
*764 _0746_
*765 _0747_
*766 _0748_
*767 _0749_
*768 _0750_
*769 _0751_
*770 _0752_
*771 _0753_
*772 _0754_
*773 _0755_
*774 _0756_
*775 _0757_
*776 _0758_
*777 _0759_
*778 _0760_
*779 _0761_
*780 _0762_
*781 _0763_
*782 _0764_
*783 _0765_
*784 _0766_
*785 _0767_
*786 _0768_
*787 _0769_
*788 _0770_
*789 _0771_
*790 _0772_
*791 _0773_
*792 _0774_
*793 _0775_
*794 _0776_
*795 _0777_
*796 _0778_
*797 _0779_
*798 _0780_
*799 _0781_
*800 _0782_
*801 _0783_
*802 _0784_
*803 _0785_
*804 _0786_
*805 _0787_
*806 _0788_
*807 _0789_
*808 _0790_
*809 _0791_
*810 _0792_
*811 _0793_
*812 _0794_
*813 _0795_
*814 _0796_
*815 _0797_
*816 _0798_
*817 _0799_
*818 _0800_
*819 _0801_
*820 _0802_
*821 _0803_
*822 _0804_
*823 _0805_
*824 _0806_
*825 _0807_
*826 _0808_
*827 _0809_
*828 _0810_
*829 _0811_
*830 _0812_
*831 _0813_
*832 _0814_
*833 _0815_
*834 _0816_
*835 _0817_
*836 _0818_
*837 _0819_
*838 _0820_
*839 _0821_
*840 _0822_
*841 _0823_
*842 _0824_
*843 _0825_
*844 _0826_
*845 _0827_
*846 _0828_
*847 _0829_
*848 _0830_
*849 _0831_
*850 _0832_
*851 _0833_
*852 _0834_
*853 _0835_
*854 _0836_
*855 _0837_
*856 _0838_
*857 _0839_
*858 _0840_
*859 _0841_
*860 _0842_
*861 _0843_
*862 _0844_
*863 _0845_
*864 _0846_
*865 _0847_
*866 _0848_
*867 _0849_
*868 _0850_
*869 clknet_0_io_in[0]
*870 clknet_1_0__leaf_io_in[0]
*871 clknet_1_1__leaf_io_in[0]
*872 des\.des_clk_out
*873 des\.des_counter\[0\]
*874 des\.des_counter\[1\]
*875 des\.des_counter\[2\]
*876 des\.des_din\[24\]
*877 des\.des_dout\[0\]
*878 des\.des_dout\[10\]
*879 des\.des_dout\[11\]
*880 des\.des_dout\[12\]
*881 des\.des_dout\[13\]
*882 des\.des_dout\[14\]
*883 des\.des_dout\[15\]
*884 des\.des_dout\[16\]
*885 des\.des_dout\[17\]
*886 des\.des_dout\[18\]
*887 des\.des_dout\[19\]
*888 des\.des_dout\[1\]
*889 des\.des_dout\[20\]
*890 des\.des_dout\[21\]
*891 des\.des_dout\[22\]
*892 des\.des_dout\[23\]
*893 des\.des_dout\[2\]
*894 des\.des_dout\[3\]
*895 des\.des_dout\[4\]
*896 des\.des_dout\[5\]
*897 des\.des_dout\[6\]
*898 des\.des_dout\[7\]
*899 des\.des_dout\[8\]
*900 des\.des_dout\[9\]
*901 funct3\[0\]
*902 funct3\[1\]
*903 funct3\[2\]
*904 ins_ldr_3
*905 instr\[0\]
*906 instr\[10\]
*907 instr\[11\]
*908 instr\[12\]
*909 instr\[13\]
*910 instr\[14\]
*911 instr\[15\]
*912 instr\[1\]
*913 instr\[2\]
*914 instr\[3\]
*915 instr\[4\]
*916 instr\[5\]
*917 instr\[6\]
*918 instr\[7\]
*919 instr\[8\]
*920 instr\[9\]
*921 instr_2\[0\]
*922 instr_2\[14\]
*923 instr_2\[15\]
*924 instr_2\[1\]
*925 instr_2\[2\]
*926 instr_2\[3\]
*927 instr_2\[4\]
*928 instr_2\[5\]
*929 ldr_hzd\[0\]
*930 ldr_hzd\[1\]
*931 ldr_hzd\[2\]
*932 ldr_hzd\[3\]
*933 ldr_hzd\[4\]
*934 ldr_hzd\[5\]
*935 ldr_hzd\[6\]
*936 ldr_hzd\[7\]
*937 net1
*938 net10
*939 net11
*940 net12
*941 net13
*942 net14
*943 net15
*944 net16
*945 net17
*946 net18
*947 net19
*948 net2
*949 net20
*950 net21
*951 net22
*952 net23
*953 net24
*954 net3
*955 net4
*956 net5
*957 net6
*958 net7
*959 net8
*960 net9
*961 pc0\[0\]
*962 pc0\[1\]
*963 pc0\[2\]
*964 pc0\[3\]
*965 pc0\[4\]
*966 pc0\[5\]
*967 pc\[0\]
*968 pc\[1\]
*969 pc\[2\]
*970 pc\[3\]
*971 pc\[4\]
*972 pc\[5\]
*973 pc_1\[0\]
*974 pc_1\[1\]
*975 pc_1\[2\]
*976 pc_1\[3\]
*977 pc_1\[4\]
*978 pc_1\[5\]
*979 pc_2\[0\]
*980 pc_2\[1\]
*981 pc_2\[2\]
*982 pc_2\[3\]
*983 pc_2\[4\]
*984 pc_2\[5\]
*985 rd_3\[0\]
*986 rd_3\[1\]
*987 rd_3\[2\]
*988 registers\.r1\[0\]
*989 registers\.r1\[1\]
*990 registers\.r1\[2\]
*991 registers\.r1\[3\]
*992 registers\.r1\[4\]
*993 registers\.r1\[5\]
*994 registers\.r1\[6\]
*995 registers\.r1\[7\]
*996 registers\.r2\[0\]
*997 registers\.r2\[1\]
*998 registers\.r2\[2\]
*999 registers\.r2\[3\]
*1000 registers\.r2\[4\]
*1001 registers\.r2\[5\]
*1002 registers\.r2\[6\]
*1003 registers\.r2\[7\]
*1004 registers\.r3\[0\]
*1005 registers\.r3\[1\]
*1006 registers\.r3\[2\]
*1007 registers\.r3\[3\]
*1008 registers\.r3\[4\]
*1009 registers\.r3\[5\]
*1010 registers\.r3\[6\]
*1011 registers\.r3\[7\]
*1012 registers\.r4\[0\]
*1013 registers\.r4\[1\]
*1014 registers\.r4\[2\]
*1015 registers\.r4\[3\]
*1016 registers\.r4\[4\]
*1017 registers\.r4\[5\]
*1018 registers\.r4\[6\]
*1019 registers\.r4\[7\]
*1020 registers\.r5\[0\]
*1021 registers\.r5\[1\]
*1022 registers\.r5\[2\]
*1023 registers\.r5\[3\]
*1024 registers\.r5\[4\]
*1025 registers\.r5\[5\]
*1026 registers\.r5\[6\]
*1027 registers\.r5\[7\]
*1028 registers\.r6\[0\]
*1029 registers\.r6\[1\]
*1030 registers\.r6\[2\]
*1031 registers\.r6\[3\]
*1032 registers\.r6\[4\]
*1033 registers\.r6\[5\]
*1034 registers\.r6\[6\]
*1035 registers\.r6\[7\]
*1036 registers\.r7\[0\]
*1037 registers\.r7\[1\]
*1038 registers\.r7\[2\]
*1039 registers\.r7\[3\]
*1040 registers\.r7\[4\]
*1041 registers\.r7\[5\]
*1042 registers\.r7\[6\]
*1043 registers\.r7\[7\]
*1044 registers\.rs1\[0\]
*1045 registers\.rs1\[1\]
*1046 registers\.rs1\[2\]
*1047 registers\.rs2\[0\]
*1048 registers\.rs2\[1\]
*1049 valid0
*1050 valid1
*1051 valid2
*1052 valid_out3
*1053 ANTENNA_1
*1054 FILLER_0_104
*1055 FILLER_0_113
*1056 FILLER_0_125
*1057 FILLER_0_137
*1058 FILLER_0_141
*1059 FILLER_0_153
*1060 FILLER_0_165
*1061 FILLER_0_169
*1062 FILLER_0_181
*1063 FILLER_0_193
*1064 FILLER_0_197
*1065 FILLER_0_209
*1066 FILLER_0_21
*1067 FILLER_0_221
*1068 FILLER_0_225
*1069 FILLER_0_237
*1070 FILLER_0_249
*1071 FILLER_0_253
*1072 FILLER_0_265
*1073 FILLER_0_27
*1074 FILLER_0_277
*1075 FILLER_0_281
*1076 FILLER_0_29
*1077 FILLER_0_293
*1078 FILLER_0_3
*1079 FILLER_0_40
*1080 FILLER_0_47
*1081 FILLER_0_54
*1082 FILLER_0_57
*1083 FILLER_0_70
*1084 FILLER_0_74
*1085 FILLER_0_80
*1086 FILLER_0_85
*1087 FILLER_0_90
*1088 FILLER_0_97
*1089 FILLER_10_104
*1090 FILLER_10_111
*1091 FILLER_10_115
*1092 FILLER_10_122
*1093 FILLER_10_129
*1094 FILLER_10_133
*1095 FILLER_10_137
*1096 FILLER_10_141
*1097 FILLER_10_151
*1098 FILLER_10_163
*1099 FILLER_10_172
*1100 FILLER_10_185
*1101 FILLER_10_194
*1102 FILLER_10_197
*1103 FILLER_10_21
*1104 FILLER_10_214
*1105 FILLER_10_225
*1106 FILLER_10_234
*1107 FILLER_10_241
*1108 FILLER_10_249
*1109 FILLER_10_253
*1110 FILLER_10_265
*1111 FILLER_10_27
*1112 FILLER_10_277
*1113 FILLER_10_289
*1114 FILLER_10_29
*1115 FILLER_10_297
*1116 FILLER_10_3
*1117 FILLER_10_34
*1118 FILLER_10_54
*1119 FILLER_10_69
*1120 FILLER_10_82
*1121 FILLER_10_85
*1122 FILLER_11_110
*1123 FILLER_11_113
*1124 FILLER_11_117
*1125 FILLER_11_134
*1126 FILLER_11_142
*1127 FILLER_11_166
*1128 FILLER_11_169
*1129 FILLER_11_187
*1130 FILLER_11_191
*1131 FILLER_11_196
*1132 FILLER_11_202
*1133 FILLER_11_211
*1134 FILLER_11_215
*1135 FILLER_11_219
*1136 FILLER_11_223
*1137 FILLER_11_225
*1138 FILLER_11_230
*1139 FILLER_11_237
*1140 FILLER_11_244
*1141 FILLER_11_251
*1142 FILLER_11_258
*1143 FILLER_11_270
*1144 FILLER_11_278
*1145 FILLER_11_281
*1146 FILLER_11_293
*1147 FILLER_11_3
*1148 FILLER_11_36
*1149 FILLER_11_49
*1150 FILLER_11_55
*1151 FILLER_11_57
*1152 FILLER_11_63
*1153 FILLER_11_77
*1154 FILLER_11_8
*1155 FILLER_11_90
*1156 FILLER_12_100
*1157 FILLER_12_123
*1158 FILLER_12_129
*1159 FILLER_12_138
*1160 FILLER_12_141
*1161 FILLER_12_151
*1162 FILLER_12_159
*1163 FILLER_12_164
*1164 FILLER_12_17
*1165 FILLER_12_179
*1166 FILLER_12_188
*1167 FILLER_12_197
*1168 FILLER_12_205
*1169 FILLER_12_212
*1170 FILLER_12_219
*1171 FILLER_12_223
*1172 FILLER_12_230
*1173 FILLER_12_238
*1174 FILLER_12_24
*1175 FILLER_12_245
*1176 FILLER_12_251
*1177 FILLER_12_253
*1178 FILLER_12_265
*1179 FILLER_12_277
*1180 FILLER_12_289
*1181 FILLER_12_29
*1182 FILLER_12_297
*1183 FILLER_12_3
*1184 FILLER_12_35
*1185 FILLER_12_39
*1186 FILLER_12_52
*1187 FILLER_12_62
*1188 FILLER_12_7
*1189 FILLER_12_82
*1190 FILLER_12_85
*1191 FILLER_13_105
*1192 FILLER_13_110
*1193 FILLER_13_113
*1194 FILLER_13_119
*1195 FILLER_13_123
*1196 FILLER_13_145
*1197 FILLER_13_158
*1198 FILLER_13_16
*1199 FILLER_13_162
*1200 FILLER_13_166
*1201 FILLER_13_169
*1202 FILLER_13_177
*1203 FILLER_13_187
*1204 FILLER_13_196
*1205 FILLER_13_200
*1206 FILLER_13_204
*1207 FILLER_13_212
*1208 FILLER_13_219
*1209 FILLER_13_223
*1210 FILLER_13_225
*1211 FILLER_13_229
*1212 FILLER_13_236
*1213 FILLER_13_248
*1214 FILLER_13_260
*1215 FILLER_13_267
*1216 FILLER_13_274
*1217 FILLER_13_281
*1218 FILLER_13_293
*1219 FILLER_13_3
*1220 FILLER_13_40
*1221 FILLER_13_53
*1222 FILLER_13_57
*1223 FILLER_13_64
*1224 FILLER_13_77
*1225 FILLER_13_97
*1226 FILLER_14_113
*1227 FILLER_14_121
*1228 FILLER_14_132
*1229 FILLER_14_141
*1230 FILLER_14_164
*1231 FILLER_14_176
*1232 FILLER_14_184
*1233 FILLER_14_194
*1234 FILLER_14_197
*1235 FILLER_14_203
*1236 FILLER_14_21
*1237 FILLER_14_211
*1238 FILLER_14_222
*1239 FILLER_14_231
*1240 FILLER_14_242
*1241 FILLER_14_249
*1242 FILLER_14_253
*1243 FILLER_14_264
*1244 FILLER_14_27
*1245 FILLER_14_276
*1246 FILLER_14_288
*1247 FILLER_14_29
*1248 FILLER_14_296
*1249 FILLER_14_3
*1250 FILLER_14_33
*1251 FILLER_14_39
*1252 FILLER_14_59
*1253 FILLER_14_68
*1254 FILLER_14_72
*1255 FILLER_14_82
*1256 FILLER_14_85
*1257 FILLER_14_91
*1258 FILLER_15_100
*1259 FILLER_15_109
*1260 FILLER_15_113
*1261 FILLER_15_120
*1262 FILLER_15_131
*1263 FILLER_15_135
*1264 FILLER_15_140
*1265 FILLER_15_150
*1266 FILLER_15_156
*1267 FILLER_15_164
*1268 FILLER_15_169
*1269 FILLER_15_174
*1270 FILLER_15_185
*1271 FILLER_15_19
*1272 FILLER_15_195
*1273 FILLER_15_199
*1274 FILLER_15_206
*1275 FILLER_15_212
*1276 FILLER_15_220
*1277 FILLER_15_225
*1278 FILLER_15_231
*1279 FILLER_15_235
*1280 FILLER_15_239
*1281 FILLER_15_247
*1282 FILLER_15_254
*1283 FILLER_15_261
*1284 FILLER_15_271
*1285 FILLER_15_278
*1286 FILLER_15_281
*1287 FILLER_15_293
*1288 FILLER_15_3
*1289 FILLER_15_36
*1290 FILLER_15_53
*1291 FILLER_15_57
*1292 FILLER_15_75
*1293 FILLER_15_82
*1294 FILLER_15_9
*1295 FILLER_15_90
*1296 FILLER_16_104
*1297 FILLER_16_108
*1298 FILLER_16_116
*1299 FILLER_16_123
*1300 FILLER_16_137
*1301 FILLER_16_141
*1302 FILLER_16_148
*1303 FILLER_16_160
*1304 FILLER_16_171
*1305 FILLER_16_183
*1306 FILLER_16_190
*1307 FILLER_16_197
*1308 FILLER_16_204
*1309 FILLER_16_220
*1310 FILLER_16_229
*1311 FILLER_16_23
*1312 FILLER_16_235
*1313 FILLER_16_243
*1314 FILLER_16_250
*1315 FILLER_16_253
*1316 FILLER_16_265
*1317 FILLER_16_27
*1318 FILLER_16_273
*1319 FILLER_16_285
*1320 FILLER_16_29
*1321 FILLER_16_297
*1322 FILLER_16_3
*1323 FILLER_16_47
*1324 FILLER_16_55
*1325 FILLER_16_68
*1326 FILLER_16_81
*1327 FILLER_16_85
*1328 FILLER_16_90
*1329 FILLER_17_10
*1330 FILLER_17_104
*1331 FILLER_17_113
*1332 FILLER_17_121
*1333 FILLER_17_130
*1334 FILLER_17_137
*1335 FILLER_17_148
*1336 FILLER_17_155
*1337 FILLER_17_166
*1338 FILLER_17_169
*1339 FILLER_17_17
*1340 FILLER_17_177
*1341 FILLER_17_186
*1342 FILLER_17_200
*1343 FILLER_17_210
*1344 FILLER_17_217
*1345 FILLER_17_223
*1346 FILLER_17_225
*1347 FILLER_17_230
*1348 FILLER_17_242
*1349 FILLER_17_254
*1350 FILLER_17_266
*1351 FILLER_17_275
*1352 FILLER_17_279
*1353 FILLER_17_281
*1354 FILLER_17_293
*1355 FILLER_17_3
*1356 FILLER_17_41
*1357 FILLER_17_54
*1358 FILLER_17_57
*1359 FILLER_17_64
*1360 FILLER_17_84
*1361 FILLER_18_106
*1362 FILLER_18_117
*1363 FILLER_18_123
*1364 FILLER_18_129
*1365 FILLER_18_138
*1366 FILLER_18_141
*1367 FILLER_18_145
*1368 FILLER_18_150
*1369 FILLER_18_154
*1370 FILLER_18_159
*1371 FILLER_18_171
*1372 FILLER_18_179
*1373 FILLER_18_186
*1374 FILLER_18_193
*1375 FILLER_18_197
*1376 FILLER_18_206
*1377 FILLER_18_21
*1378 FILLER_18_219
*1379 FILLER_18_223
*1380 FILLER_18_232
*1381 FILLER_18_244
*1382 FILLER_18_253
*1383 FILLER_18_264
*1384 FILLER_18_27
*1385 FILLER_18_277
*1386 FILLER_18_286
*1387 FILLER_18_29
*1388 FILLER_18_298
*1389 FILLER_18_3
*1390 FILLER_18_37
*1391 FILLER_18_57
*1392 FILLER_18_77
*1393 FILLER_18_83
*1394 FILLER_18_85
*1395 FILLER_18_91
*1396 FILLER_19_110
*1397 FILLER_19_113
*1398 FILLER_19_122
*1399 FILLER_19_133
*1400 FILLER_19_14
*1401 FILLER_19_143
*1402 FILLER_19_152
*1403 FILLER_19_166
*1404 FILLER_19_169
*1405 FILLER_19_184
*1406 FILLER_19_192
*1407 FILLER_19_201
*1408 FILLER_19_205
*1409 FILLER_19_209
*1410 FILLER_19_222
*1411 FILLER_19_225
*1412 FILLER_19_235
*1413 FILLER_19_242
*1414 FILLER_19_250
*1415 FILLER_19_261
*1416 FILLER_19_275
*1417 FILLER_19_279
*1418 FILLER_19_281
*1419 FILLER_19_293
*1420 FILLER_19_3
*1421 FILLER_19_34
*1422 FILLER_19_54
*1423 FILLER_19_57
*1424 FILLER_19_68
*1425 FILLER_19_76
*1426 FILLER_19_84
*1427 FILLER_19_92
*1428 FILLER_19_99
*1429 FILLER_1_104
*1430 FILLER_1_113
*1431 FILLER_1_125
*1432 FILLER_1_137
*1433 FILLER_1_149
*1434 FILLER_1_161
*1435 FILLER_1_167
*1436 FILLER_1_169
*1437 FILLER_1_18
*1438 FILLER_1_181
*1439 FILLER_1_193
*1440 FILLER_1_205
*1441 FILLER_1_217
*1442 FILLER_1_223
*1443 FILLER_1_225
*1444 FILLER_1_237
*1445 FILLER_1_249
*1446 FILLER_1_261
*1447 FILLER_1_273
*1448 FILLER_1_279
*1449 FILLER_1_281
*1450 FILLER_1_293
*1451 FILLER_1_3
*1452 FILLER_1_38
*1453 FILLER_1_45
*1454 FILLER_1_54
*1455 FILLER_1_57
*1456 FILLER_1_77
*1457 FILLER_1_90
*1458 FILLER_1_97
*1459 FILLER_20_103
*1460 FILLER_20_116
*1461 FILLER_20_12
*1462 FILLER_20_124
*1463 FILLER_20_130
*1464 FILLER_20_138
*1465 FILLER_20_141
*1466 FILLER_20_149
*1467 FILLER_20_157
*1468 FILLER_20_165
*1469 FILLER_20_178
*1470 FILLER_20_186
*1471 FILLER_20_19
*1472 FILLER_20_193
*1473 FILLER_20_197
*1474 FILLER_20_206
*1475 FILLER_20_217
*1476 FILLER_20_226
*1477 FILLER_20_234
*1478 FILLER_20_241
*1479 FILLER_20_248
*1480 FILLER_20_253
*1481 FILLER_20_26
*1482 FILLER_20_264
*1483 FILLER_20_273
*1484 FILLER_20_285
*1485 FILLER_20_29
*1486 FILLER_20_297
*1487 FILLER_20_3
*1488 FILLER_20_34
*1489 FILLER_20_54
*1490 FILLER_20_63
*1491 FILLER_20_71
*1492 FILLER_20_82
*1493 FILLER_20_85
*1494 FILLER_21_10
*1495 FILLER_21_100
*1496 FILLER_21_110
*1497 FILLER_21_113
*1498 FILLER_21_121
*1499 FILLER_21_129
*1500 FILLER_21_135
*1501 FILLER_21_143
*1502 FILLER_21_152
*1503 FILLER_21_158
*1504 FILLER_21_163
*1505 FILLER_21_167
*1506 FILLER_21_169
*1507 FILLER_21_175
*1508 FILLER_21_179
*1509 FILLER_21_187
*1510 FILLER_21_201
*1511 FILLER_21_209
*1512 FILLER_21_221
*1513 FILLER_21_225
*1514 FILLER_21_237
*1515 FILLER_21_249
*1516 FILLER_21_256
*1517 FILLER_21_269
*1518 FILLER_21_277
*1519 FILLER_21_281
*1520 FILLER_21_293
*1521 FILLER_21_3
*1522 FILLER_21_36
*1523 FILLER_21_51
*1524 FILLER_21_55
*1525 FILLER_21_57
*1526 FILLER_21_61
*1527 FILLER_21_67
*1528 FILLER_21_80
*1529 FILLER_22_110
*1530 FILLER_22_123
*1531 FILLER_22_134
*1532 FILLER_22_141
*1533 FILLER_22_149
*1534 FILLER_22_160
*1535 FILLER_22_167
*1536 FILLER_22_174
*1537 FILLER_22_178
*1538 FILLER_22_186
*1539 FILLER_22_193
*1540 FILLER_22_197
*1541 FILLER_22_201
*1542 FILLER_22_207
*1543 FILLER_22_21
*1544 FILLER_22_213
*1545 FILLER_22_220
*1546 FILLER_22_227
*1547 FILLER_22_231
*1548 FILLER_22_240
*1549 FILLER_22_250
*1550 FILLER_22_253
*1551 FILLER_22_260
*1552 FILLER_22_269
*1553 FILLER_22_27
*1554 FILLER_22_276
*1555 FILLER_22_288
*1556 FILLER_22_29
*1557 FILLER_22_296
*1558 FILLER_22_3
*1559 FILLER_22_40
*1560 FILLER_22_49
*1561 FILLER_22_59
*1562 FILLER_22_69
*1563 FILLER_22_78
*1564 FILLER_22_85
*1565 FILLER_22_91
*1566 FILLER_22_97
*1567 FILLER_23_110
*1568 FILLER_23_113
*1569 FILLER_23_117
*1570 FILLER_23_125
*1571 FILLER_23_134
*1572 FILLER_23_138
*1573 FILLER_23_156
*1574 FILLER_23_165
*1575 FILLER_23_169
*1576 FILLER_23_17
*1577 FILLER_23_177
*1578 FILLER_23_184
*1579 FILLER_23_191
*1580 FILLER_23_199
*1581 FILLER_23_206
*1582 FILLER_23_222
*1583 FILLER_23_225
*1584 FILLER_23_229
*1585 FILLER_23_239
*1586 FILLER_23_247
*1587 FILLER_23_257
*1588 FILLER_23_268
*1589 FILLER_23_277
*1590 FILLER_23_281
*1591 FILLER_23_293
*1592 FILLER_23_3
*1593 FILLER_23_39
*1594 FILLER_23_52
*1595 FILLER_23_57
*1596 FILLER_23_7
*1597 FILLER_23_75
*1598 FILLER_23_87
*1599 FILLER_23_97
*1600 FILLER_24_103
*1601 FILLER_24_118
*1602 FILLER_24_125
*1603 FILLER_24_138
*1604 FILLER_24_141
*1605 FILLER_24_148
*1606 FILLER_24_159
*1607 FILLER_24_167
*1608 FILLER_24_174
*1609 FILLER_24_184
*1610 FILLER_24_188
*1611 FILLER_24_194
*1612 FILLER_24_197
*1613 FILLER_24_206
*1614 FILLER_24_21
*1615 FILLER_24_210
*1616 FILLER_24_216
*1617 FILLER_24_225
*1618 FILLER_24_233
*1619 FILLER_24_250
*1620 FILLER_24_253
*1621 FILLER_24_266
*1622 FILLER_24_27
*1623 FILLER_24_274
*1624 FILLER_24_286
*1625 FILLER_24_29
*1626 FILLER_24_298
*1627 FILLER_24_3
*1628 FILLER_24_38
*1629 FILLER_24_58
*1630 FILLER_24_70
*1631 FILLER_24_82
*1632 FILLER_24_85
*1633 FILLER_25_110
*1634 FILLER_25_113
*1635 FILLER_25_118
*1636 FILLER_25_131
*1637 FILLER_25_144
*1638 FILLER_25_155
*1639 FILLER_25_165
*1640 FILLER_25_169
*1641 FILLER_25_17
*1642 FILLER_25_176
*1643 FILLER_25_189
*1644 FILLER_25_202
*1645 FILLER_25_211
*1646 FILLER_25_222
*1647 FILLER_25_225
*1648 FILLER_25_23
*1649 FILLER_25_231
*1650 FILLER_25_239
*1651 FILLER_25_247
*1652 FILLER_25_254
*1653 FILLER_25_264
*1654 FILLER_25_271
*1655 FILLER_25_279
*1656 FILLER_25_281
*1657 FILLER_25_293
*1658 FILLER_25_3
*1659 FILLER_25_33
*1660 FILLER_25_46
*1661 FILLER_25_54
*1662 FILLER_25_57
*1663 FILLER_25_61
*1664 FILLER_25_67
*1665 FILLER_25_7
*1666 FILLER_25_79
*1667 FILLER_25_83
*1668 FILLER_25_88
*1669 FILLER_25_97
*1670 FILLER_26_102
*1671 FILLER_26_113
*1672 FILLER_26_126
*1673 FILLER_26_130
*1674 FILLER_26_138
*1675 FILLER_26_141
*1676 FILLER_26_156
*1677 FILLER_26_168
*1678 FILLER_26_175
*1679 FILLER_26_186
*1680 FILLER_26_194
*1681 FILLER_26_197
*1682 FILLER_26_202
*1683 FILLER_26_21
*1684 FILLER_26_213
*1685 FILLER_26_219
*1686 FILLER_26_226
*1687 FILLER_26_230
*1688 FILLER_26_239
*1689 FILLER_26_246
*1690 FILLER_26_253
*1691 FILLER_26_260
*1692 FILLER_26_269
*1693 FILLER_26_27
*1694 FILLER_26_276
*1695 FILLER_26_288
*1696 FILLER_26_29
*1697 FILLER_26_296
*1698 FILLER_26_3
*1699 FILLER_26_40
*1700 FILLER_26_48
*1701 FILLER_26_72
*1702 FILLER_26_81
*1703 FILLER_26_85
*1704 FILLER_26_94
*1705 FILLER_27_100
*1706 FILLER_27_109
*1707 FILLER_27_113
*1708 FILLER_27_120
*1709 FILLER_27_135
*1710 FILLER_27_144
*1711 FILLER_27_166
*1712 FILLER_27_169
*1713 FILLER_27_17
*1714 FILLER_27_184
*1715 FILLER_27_192
*1716 FILLER_27_201
*1717 FILLER_27_216
*1718 FILLER_27_225
*1719 FILLER_27_240
*1720 FILLER_27_250
*1721 FILLER_27_258
*1722 FILLER_27_265
*1723 FILLER_27_277
*1724 FILLER_27_281
*1725 FILLER_27_293
*1726 FILLER_27_3
*1727 FILLER_27_39
*1728 FILLER_27_45
*1729 FILLER_27_53
*1730 FILLER_27_57
*1731 FILLER_27_65
*1732 FILLER_27_7
*1733 FILLER_27_80
*1734 FILLER_28_101
*1735 FILLER_28_11
*1736 FILLER_28_118
*1737 FILLER_28_138
*1738 FILLER_28_141
*1739 FILLER_28_160
*1740 FILLER_28_170
*1741 FILLER_28_18
*1742 FILLER_28_180
*1743 FILLER_28_186
*1744 FILLER_28_194
*1745 FILLER_28_197
*1746 FILLER_28_212
*1747 FILLER_28_224
*1748 FILLER_28_237
*1749 FILLER_28_249
*1750 FILLER_28_253
*1751 FILLER_28_257
*1752 FILLER_28_26
*1753 FILLER_28_261
*1754 FILLER_28_273
*1755 FILLER_28_285
*1756 FILLER_28_29
*1757 FILLER_28_297
*1758 FILLER_28_3
*1759 FILLER_28_53
*1760 FILLER_28_7
*1761 FILLER_28_71
*1762 FILLER_28_82
*1763 FILLER_28_85
*1764 FILLER_28_97
*1765 FILLER_29_108
*1766 FILLER_29_113
*1767 FILLER_29_124
*1768 FILLER_29_131
*1769 FILLER_29_141
*1770 FILLER_29_149
*1771 FILLER_29_159
*1772 FILLER_29_166
*1773 FILLER_29_169
*1774 FILLER_29_17
*1775 FILLER_29_178
*1776 FILLER_29_188
*1777 FILLER_29_195
*1778 FILLER_29_202
*1779 FILLER_29_210
*1780 FILLER_29_215
*1781 FILLER_29_222
*1782 FILLER_29_225
*1783 FILLER_29_23
*1784 FILLER_29_231
*1785 FILLER_29_239
*1786 FILLER_29_247
*1787 FILLER_29_256
*1788 FILLER_29_268
*1789 FILLER_29_281
*1790 FILLER_29_293
*1791 FILLER_29_3
*1792 FILLER_29_40
*1793 FILLER_29_50
*1794 FILLER_29_57
*1795 FILLER_29_66
*1796 FILLER_29_7
*1797 FILLER_29_79
*1798 FILLER_29_87
*1799 FILLER_29_96
*1800 FILLER_2_103
*1801 FILLER_2_110
*1802 FILLER_2_122
*1803 FILLER_2_13
*1804 FILLER_2_134
*1805 FILLER_2_141
*1806 FILLER_2_153
*1807 FILLER_2_165
*1808 FILLER_2_177
*1809 FILLER_2_189
*1810 FILLER_2_195
*1811 FILLER_2_197
*1812 FILLER_2_209
*1813 FILLER_2_221
*1814 FILLER_2_233
*1815 FILLER_2_245
*1816 FILLER_2_251
*1817 FILLER_2_253
*1818 FILLER_2_26
*1819 FILLER_2_265
*1820 FILLER_2_277
*1821 FILLER_2_289
*1822 FILLER_2_29
*1823 FILLER_2_297
*1824 FILLER_2_3
*1825 FILLER_2_40
*1826 FILLER_2_60
*1827 FILLER_2_69
*1828 FILLER_2_77
*1829 FILLER_2_82
*1830 FILLER_2_85
*1831 FILLER_2_9
*1832 FILLER_30_101
*1833 FILLER_30_114
*1834 FILLER_30_127
*1835 FILLER_30_134
*1836 FILLER_30_141
*1837 FILLER_30_148
*1838 FILLER_30_159
*1839 FILLER_30_165
*1840 FILLER_30_173
*1841 FILLER_30_182
*1842 FILLER_30_191
*1843 FILLER_30_195
*1844 FILLER_30_197
*1845 FILLER_30_202
*1846 FILLER_30_21
*1847 FILLER_30_210
*1848 FILLER_30_219
*1849 FILLER_30_228
*1850 FILLER_30_235
*1851 FILLER_30_249
*1852 FILLER_30_253
*1853 FILLER_30_260
*1854 FILLER_30_27
*1855 FILLER_30_272
*1856 FILLER_30_284
*1857 FILLER_30_29