*SPEF "ieee 1481-1999"
*DESIGN "c_TT3_BTCALC8"
*DATE "11:11:11 Fri 11 11, 1111"
*VENDOR "OpenRCX"
*PROGRAM "Parallel Extraction"
*VERSION "1.0"
*DESIGN_FLOW "NAME_SCOPE LOCAL" "PIN_CAP NONE"
*DIVIDER /
*DELIMITER :
*BUS_DELIMITER []
*T_UNIT 1 NS
*C_UNIT 1 PF
*R_UNIT 1 OHM
*L_UNIT 1 HENRY

*NAME_MAP
*1 io_in[0]
*2 io_in[1]
*3 io_in[2]
*4 io_in[3]
*5 io_in[4]
*6 io_in[5]
*7 io_in[6]
*8 io_in[7]
*9 io_out[0]
*10 io_out[1]
*11 io_out[2]
*12 io_out[3]
*13 io_out[4]
*14 io_out[5]
*15 io_out[6]
*16 io_out[7]
*19 _000_
*20 _001_
*21 _002_
*22 _003_
*23 _004_
*24 _005_
*25 _006_
*26 _007_
*27 _008_
*28 _009_
*29 _010_
*30 _011_
*31 _012_
*32 _013_
*33 _014_
*34 _015_
*35 _016_
*36 _017_
*37 _018_
*38 _019_
*39 _020_
*40 _021_
*41 _022_
*42 _023_
*43 _024_
*44 _025_
*45 _026_
*46 _027_
*47 _028_
*48 _029_
*49 _030_
*50 _031_
*51 _032_
*52 _033_
*53 _034_
*54 _035_
*55 _036_
*56 _037_
*57 _038_
*58 _039_
*59 _040_
*60 _041_
*61 _042_
*62 _043_
*63 _044_
*64 _045_
*65 _046_
*66 _047_
*67 _048_
*68 _049_
*69 _050_
*70 _051_
*71 _052_
*72 _054_
*73 _055_
*74 _056_
*75 _057_
*76 _058_
*77 _059_
*78 _060_
*79 _061_
*80 _062_
*81 _063_
*82 _064_
*83 _065_
*84 _066_
*85 _067_
*86 clknet_0__001_
*87 clknet_0__005_
*88 clknet_0__007_
*89 clknet_0__008_
*90 clknet_0__009_
*91 clknet_0__010_
*92 clknet_0__011_
*93 clknet_0__016_
*94 clknet_0__025_
*95 clknet_0__026_
*96 clknet_0__032_
*97 clknet_0__034_
*98 clknet_0__038_
*99 clknet_0__040_
*100 clknet_0__043_
*101 clknet_0__045_
*102 clknet_0__046_
*103 clknet_0__047_
*104 clknet_0__048_
*105 clknet_0__049_
*106 clknet_0__050_
*107 clknet_0__052_
*108 clknet_0__056_
*109 clknet_0__064_
*110 clknet_0_io_in[0]
*111 clknet_1_0__leaf__001_
*112 clknet_1_0__leaf__005_
*113 clknet_1_0__leaf__007_
*114 clknet_1_0__leaf__008_
*115 clknet_1_0__leaf__009_
*116 clknet_1_0__leaf__010_
*117 clknet_1_0__leaf__011_
*118 clknet_1_0__leaf__016_
*119 clknet_1_0__leaf__025_
*120 clknet_1_0__leaf__026_
*121 clknet_1_0__leaf__032_
*122 clknet_1_0__leaf__034_
*123 clknet_1_0__leaf__038_
*124 clknet_1_0__leaf__040_
*125 clknet_1_0__leaf__043_
*126 clknet_1_0__leaf__045_
*127 clknet_1_0__leaf__046_
*128 clknet_1_0__leaf__047_
*129 clknet_1_0__leaf__048_
*130 clknet_1_0__leaf__049_
*131 clknet_1_0__leaf__050_
*132 clknet_1_0__leaf__052_
*133 clknet_1_0__leaf__056_
*134 clknet_1_0__leaf__064_
*135 clknet_1_0__leaf_io_in[0]
*136 clknet_1_1__leaf__001_
*137 clknet_1_1__leaf__005_
*138 clknet_1_1__leaf__007_
*139 clknet_1_1__leaf__008_
*140 clknet_1_1__leaf__009_
*141 clknet_1_1__leaf__010_
*142 clknet_1_1__leaf__011_
*143 clknet_1_1__leaf__016_
*144 clknet_1_1__leaf__025_
*145 clknet_1_1__leaf__026_
*146 clknet_1_1__leaf__032_
*147 clknet_1_1__leaf__034_
*148 clknet_1_1__leaf__038_
*149 clknet_1_1__leaf__040_
*150 clknet_1_1__leaf__043_
*151 clknet_1_1__leaf__045_
*152 clknet_1_1__leaf__046_
*153 clknet_1_1__leaf__047_
*154 clknet_1_1__leaf__048_
*155 clknet_1_1__leaf__049_
*156 clknet_1_1__leaf__050_
*157 clknet_1_1__leaf__052_
*158 clknet_1_1__leaf__056_
*159 clknet_1_1__leaf__064_
*160 clknet_1_1__leaf_io_in[0]
*161 net1
*162 net2
*163 net3
*164 net4
*165 net5
*166 net6
*167 net7
*168 net8
*169 FILLER_0_109
*170 FILLER_0_113
*171 FILLER_0_125
*172 FILLER_0_137
*173 FILLER_0_141
*174 FILLER_0_15
*175 FILLER_0_153
*176 FILLER_0_165
*177 FILLER_0_169
*178 FILLER_0_181
*179 FILLER_0_193
*180 FILLER_0_197
*181 FILLER_0_209
*182 FILLER_0_221
*183 FILLER_0_225
*184 FILLER_0_237
*185 FILLER_0_249
*186 FILLER_0_253
*187 FILLER_0_265
*188 FILLER_0_27
*189 FILLER_0_277
*190 FILLER_0_281
*191 FILLER_0_29
*192 FILLER_0_293
*193 FILLER_0_3
*194 FILLER_0_41
*195 FILLER_0_53
*196 FILLER_0_57
*197 FILLER_0_69
*198 FILLER_0_81
*199 FILLER_0_85
*200 FILLER_0_97
*201 FILLER_10_109
*202 FILLER_10_121
*203 FILLER_10_133
*204 FILLER_10_139
*205 FILLER_10_141
*206 FILLER_10_15
*207 FILLER_10_153
*208 FILLER_10_165
*209 FILLER_10_177
*210 FILLER_10_189
*211 FILLER_10_195
*212 FILLER_10_197
*213 FILLER_10_209
*214 FILLER_10_221
*215 FILLER_10_233
*216 FILLER_10_245
*217 FILLER_10_251
*218 FILLER_10_253
*219 FILLER_10_265
*220 FILLER_10_27
*221 FILLER_10_277
*222 FILLER_10_289
*223 FILLER_10_29
*224 FILLER_10_297
*225 FILLER_10_3
*226 FILLER_10_41
*227 FILLER_10_53
*228 FILLER_10_65
*229 FILLER_10_77
*230 FILLER_10_83
*231 FILLER_10_85
*232 FILLER_10_97
*233 FILLER_11_105
*234 FILLER_11_111
*235 FILLER_11_113
*236 FILLER_11_125
*237 FILLER_11_137
*238 FILLER_11_149
*239 FILLER_11_15
*240 FILLER_11_161
*241 FILLER_11_167
*242 FILLER_11_169
*243 FILLER_11_181
*244 FILLER_11_193
*245 FILLER_11_205
*246 FILLER_11_217
*247 FILLER_11_223
*248 FILLER_11_225
*249 FILLER_11_237
*250 FILLER_11_249
*251 FILLER_11_261
*252 FILLER_11_27
*253 FILLER_11_273
*254 FILLER_11_279
*255 FILLER_11_281
*256 FILLER_11_293
*257 FILLER_11_3
*258 FILLER_11_39
*259 FILLER_11_51
*260 FILLER_11_55
*261 FILLER_11_57
*262 FILLER_11_69
*263 FILLER_11_81
*264 FILLER_11_93
*265 FILLER_12_109
*266 FILLER_12_121
*267 FILLER_12_133
*268 FILLER_12_139
*269 FILLER_12_141
*270 FILLER_12_153
*271 FILLER_12_165
*272 FILLER_12_177
*273 FILLER_12_189
*274 FILLER_12_195
*275 FILLER_12_197
*276 FILLER_12_20
*277 FILLER_12_209
*278 FILLER_12_221
*279 FILLER_12_233
*280 FILLER_12_245
*281 FILLER_12_251
*282 FILLER_12_253
*283 FILLER_12_265
*284 FILLER_12_277
*285 FILLER_12_289
*286 FILLER_12_29
*287 FILLER_12_297
*288 FILLER_12_3
*289 FILLER_12_41
*290 FILLER_12_53
*291 FILLER_12_65
*292 FILLER_12_77
*293 FILLER_12_8
*294 FILLER_12_83
*295 FILLER_12_85
*296 FILLER_12_97
*297 FILLER_13_105
*298 FILLER_13_111
*299 FILLER_13_113
*300 FILLER_13_125
*301 FILLER_13_137
*302 FILLER_13_149
*303 FILLER_13_15
*304 FILLER_13_161
*305 FILLER_13_167
*306 FILLER_13_169
*307 FILLER_13_181
*308 FILLER_13_193
*309 FILLER_13_205
*310 FILLER_13_217
*311 FILLER_13_223
*312 FILLER_13_225
*313 FILLER_13_237
*314 FILLER_13_249
*315 FILLER_13_261
*316 FILLER_13_27
*317 FILLER_13_273
*318 FILLER_13_279
*319 FILLER_13_281
*320 FILLER_13_293
*321 FILLER_13_3
*322 FILLER_13_39
*323 FILLER_13_51
*324 FILLER_13_55
*325 FILLER_13_57
*326 FILLER_13_69
*327 FILLER_13_81
*328 FILLER_13_93
*329 FILLER_14_109
*330 FILLER_14_121
*331 FILLER_14_133
*332 FILLER_14_139
*333 FILLER_14_141
*334 FILLER_14_15
*335 FILLER_14_153
*336 FILLER_14_165
*337 FILLER_14_177
*338 FILLER_14_189
*339 FILLER_14_195
*340 FILLER_14_197
*341 FILLER_14_209
*342 FILLER_14_221
*343 FILLER_14_233
*344 FILLER_14_245
*345 FILLER_14_251
*346 FILLER_14_253
*347 FILLER_14_265
*348 FILLER_14_27
*349 FILLER_14_277
*350 FILLER_14_289
*351 FILLER_14_29
*352 FILLER_14_297
*353 FILLER_14_3
*354 FILLER_14_41
*355 FILLER_14_53
*356 FILLER_14_65
*357 FILLER_14_77
*358 FILLER_14_83
*359 FILLER_14_85
*360 FILLER_14_97
*361 FILLER_15_105
*362 FILLER_15_111
*363 FILLER_15_113
*364 FILLER_15_125
*365 FILLER_15_137
*366 FILLER_15_149
*367 FILLER_15_161
*368 FILLER_15_167
*369 FILLER_15_169
*370 FILLER_15_181
*371 FILLER_15_193
*372 FILLER_15_205
*373 FILLER_15_21
*374 FILLER_15_217
*375 FILLER_15_223
*376 FILLER_15_225
*377 FILLER_15_237
*378 FILLER_15_249
*379 FILLER_15_261
*380 FILLER_15_273
*381 FILLER_15_279
*382 FILLER_15_281
*383 FILLER_15_293
*384 FILLER_15_3
*385 FILLER_15_33
*386 FILLER_15_45
*387 FILLER_15_53
*388 FILLER_15_57
*389 FILLER_15_69
*390 FILLER_15_81
*391 FILLER_15_9
*392 FILLER_15_93
*393 FILLER_16_109
*394 FILLER_16_121
*395 FILLER_16_133
*396 FILLER_16_139
*397 FILLER_16_141
*398 FILLER_16_15
*399 FILLER_16_153
*400 FILLER_16_165
*401 FILLER_16_177
*402 FILLER_16_189
*403 FILLER_16_195
*404 FILLER_16_197
*405 FILLER_16_209
*406 FILLER_16_221
*407 FILLER_16_233
*408 FILLER_16_245
*409 FILLER_16_251
*410 FILLER_16_253
*411 FILLER_16_265
*412 FILLER_16_27
*413 FILLER_16_277
*414 FILLER_16_289
*415 FILLER_16_29
*416 FILLER_16_297
*417 FILLER_16_3
*418 FILLER_16_41
*419 FILLER_16_53
*420 FILLER_16_65
*421 FILLER_16_77
*422 FILLER_16_83
*423 FILLER_16_85
*424 FILLER_16_97
*425 FILLER_17_105
*426 FILLER_17_11
*427 FILLER_17_111
*428 FILLER_17_113
*429 FILLER_17_125
*430 FILLER_17_137
*431 FILLER_17_149
*432 FILLER_17_161
*433 FILLER_17_167
*434 FILLER_17_169
*435 FILLER_17_181
*436 FILLER_17_193
*437 FILLER_17_205
*438 FILLER_17_217
*439 FILLER_17_223
*440 FILLER_17_225
*441 FILLER_17_237
*442 FILLER_17_249
*443 FILLER_17_26
*444 FILLER_17_261
*445 FILLER_17_273
*446 FILLER_17_279
*447 FILLER_17_281
*448 FILLER_17_293
*449 FILLER_17_3
*450 FILLER_17_38
*451 FILLER_17_50
*452 FILLER_17_57
*453 FILLER_17_69
*454 FILLER_17_81
*455 FILLER_17_93
*456 FILLER_18_10
*457 FILLER_18_109
*458 FILLER_18_121
*459 FILLER_18_133
*460 FILLER_18_139
*461 FILLER_18_141
*462 FILLER_18_153
*463 FILLER_18_165
*464 FILLER_18_177
*465 FILLER_18_189
*466 FILLER_18_195
*467 FILLER_18_197
*468 FILLER_18_209
*469 FILLER_18_221
*470 FILLER_18_233
*471 FILLER_18_24
*472 FILLER_18_245
*473 FILLER_18_251
*474 FILLER_18_253
*475 FILLER_18_265
*476 FILLER_18_277
*477 FILLER_18_289
*478 FILLER_18_29
*479 FILLER_18_297
*480 FILLER_18_3
*481 FILLER_18_41
*482 FILLER_18_53
*483 FILLER_18_65
*484 FILLER_18_77
*485 FILLER_18_83
*486 FILLER_18_85
*487 FILLER_18_97
*488 FILLER_19_105
*489 FILLER_19_111
*490 FILLER_19_113
*491 FILLER_19_125
*492 FILLER_19_137
*493 FILLER_19_149
*494 FILLER_19_161
*495 FILLER_19_167
*496 FILLER_19_169
*497 FILLER_19_181
*498 FILLER_19_193
*499 FILLER_19_205
*500 FILLER_19_21
*501 FILLER_19_217
*502 FILLER_19_223
*503 FILLER_19_225
*504 FILLER_19_237
*505 FILLER_19_249
*506 FILLER_19_261
*507 FILLER_19_273
*508 FILLER_19_279
*509 FILLER_19_281
*510 FILLER_19_29
*511 FILLER_19_293
*512 FILLER_19_3
*513 FILLER_19_41
*514 FILLER_19_53
*515 FILLER_19_57
*516 FILLER_19_69
*517 FILLER_19_81
*518 FILLER_19_9
*519 FILLER_19_93
*520 FILLER_1_105
*521 FILLER_1_111
*522 FILLER_1_113
*523 FILLER_1_125
*524 FILLER_1_137
*525 FILLER_1_149
*526 FILLER_1_15
*527 FILLER_1_161
*528 FILLER_1_167
*529 FILLER_1_169
*530 FILLER_1_181
*531 FILLER_1_193
*532 FILLER_1_205
*533 FILLER_1_217
*534 FILLER_1_223
*535 FILLER_1_225
*536 FILLER_1_237
*537 FILLER_1_249
*538 FILLER_1_261
*539 FILLER_1_27
*540 FILLER_1_273
*541 FILLER_1_279
*542 FILLER_1_281
*543 FILLER_1_293
*544 FILLER_1_3
*545 FILLER_1_39
*546 FILLER_1_51
*547 FILLER_1_55
*548 FILLER_1_57
*549 FILLER_1_69
*550 FILLER_1_81
*551 FILLER_1_93
*552 FILLER_20_109
*553 FILLER_20_12
*554 FILLER_20_121
*555 FILLER_20_133
*556 FILLER_20_139
*557 FILLER_20_141
*558 FILLER_20_153
*559 FILLER_20_165
*560 FILLER_20_177
*561 FILLER_20_189
*562 FILLER_20_195
*563 FILLER_20_197
*564 FILLER_20_209
*565 FILLER_20_221
*566 FILLER_20_233
*567 FILLER_20_24
*568 FILLER_20_245
*569 FILLER_20_251
*570 FILLER_20_253
*571 FILLER_20_265
*572 FILLER_20_277
*573 FILLER_20_289
*574 FILLER_20_29
*575 FILLER_20_297
*576 FILLER_20_3
*577 FILLER_20_41
*578 FILLER_20_53
*579 FILLER_20_65
*580 FILLER_20_77
*581 FILLER_20_83
*582 FILLER_20_85
*583 FILLER_20_97
*584 FILLER_21_105
*585 FILLER_21_111
*586 FILLER_21_113
*587 FILLER_21_125
*588 FILLER_21_137
*589 FILLER_21_149
*590 FILLER_21_15
*591 FILLER_21_161
*592 FILLER_21_167
*593 FILLER_21_169
*594 FILLER_21_181
*595 FILLER_21_19
*596 FILLER_21_193
*597 FILLER_21_205
*598 FILLER_21_217
*599 FILLER_21_223
*600 FILLER_21_225
*601 FILLER_21_237
*602 FILLER_21_249
*603 FILLER_21_261
*604 FILLER_21_273
*605 FILLER_21_279
*606 FILLER_21_281
*607 FILLER_21_29
*608 FILLER_21_293
*609 FILLER_21_3
*610 FILLER_21_36
*611 FILLER_21_48
*612 FILLER_21_57
*613 FILLER_21_69
*614 FILLER_21_81
*615 FILLER_21_93
*616 FILLER_22_109
*617 FILLER_22_11
*618 FILLER_22_121
*619 FILLER_22_133
*620 FILLER_22_139
*621 FILLER_22_141
*622 FILLER_22_153
*623 FILLER_22_165
*624 FILLER_22_177
*625 FILLER_22_18
*626 FILLER_22_189
*627 FILLER_22_195
*628 FILLER_22_197
*629 FILLER_22_209
*630 FILLER_22_221
*631 FILLER_22_233
*632 FILLER_22_245
*633 FILLER_22_251
*634 FILLER_22_253
*635 FILLER_22_26
*636 FILLER_22_265
*637 FILLER_22_277
*638 FILLER_22_289
*639 FILLER_22_29
*640 FILLER_22_297
*641 FILLER_22_3
*642 FILLER_22_41
*643 FILLER_22_53
*644 FILLER_22_65
*645 FILLER_22_77
*646 FILLER_22_83
*647 FILLER_22_85
*648 FILLER_22_97
*649 FILLER_23_105
*650 FILLER_23_111
*651 FILLER_23_113
*652 FILLER_23_125
*653 FILLER_23_137
*654 FILLER_23_149
*655 FILLER_23_15
*656 FILLER_23_161
*657 FILLER_23_167
*658 FILLER_23_169
*659 FILLER_23_181
*660 FILLER_23_193
*661 FILLER_23_205
*662 FILLER_23_217
*663 FILLER_23_223
*664 FILLER_23_225
*665 FILLER_23_237
*666 FILLER_23_249
*667 FILLER_23_261
*668 FILLER_23_27
*669 FILLER_23_273
*670 FILLER_23_279
*671 FILLER_23_281
*672 FILLER_23_293
*673 FILLER_23_3
*674 FILLER_23_39
*675 FILLER_23_47
*676 FILLER_23_55
*677 FILLER_23_57
*678 FILLER_23_69
*679 FILLER_23_8
*680 FILLER_23_81
*681 FILLER_23_93
*682 FILLER_24_109
*683 FILLER_24_121
*684 FILLER_24_13
*685 FILLER_24_133
*686 FILLER_24_139
*687 FILLER_24_141
*688 FILLER_24_153
*689 FILLER_24_165
*690 FILLER_24_177
*691 FILLER_24_189
*692 FILLER_24_195
*693 FILLER_24_197
*694 FILLER_24_20
*695 FILLER_24_209
*696 FILLER_24_221
*697 FILLER_24_233
*698 FILLER_24_245
*699 FILLER_24_251
*700 FILLER_24_253
*701 FILLER_24_265
*702 FILLER_24_277
*703 FILLER_24_289
*704 FILLER_24_29
*705 FILLER_24_297
*706 FILLER_24_3
*707 FILLER_24_41
*708 FILLER_24_53
*709 FILLER_24_65
*710 FILLER_24_77
*711 FILLER_24_83
*712 FILLER_24_85
*713 FILLER_24_97
*714 FILLER_25_110
*715 FILLER_25_113
*716 FILLER_25_125
*717 FILLER_25_137
*718 FILLER_25_149
*719 FILLER_25_15
*720 FILLER_25_161
*721 FILLER_25_167
*722 FILLER_25_169
*723 FILLER_25_181
*724 FILLER_25_193
*725 FILLER_25_205
*726 FILLER_25_217
*727 FILLER_25_223
*728 FILLER_25_225
*729 FILLER_25_237
*730 FILLER_25_24
*731 FILLER_25_249
*732 FILLER_25_261
*733 FILLER_25_273
*734 FILLER_25_279
*735 FILLER_25_281
*736 FILLER_25_293
*737 FILLER_25_3
*738 FILLER_25_36
*739 FILLER_25_48
*740 FILLER_25_57
*741 FILLER_25_62
*742 FILLER_25_74
*743 FILLER_25_86
*744 FILLER_25_9
*745 FILLER_25_98
*746 FILLER_26_109
*747 FILLER_26_12
*748 FILLER_26_121
*749 FILLER_26_133
*750 FILLER_26_139
*751 FILLER_26_141
*752 FILLER_26_153
*753 FILLER_26_165
*754 FILLER_26_177
*755 FILLER_26_189
*756 FILLER_26_195
*757 FILLER_26_197
*758 FILLER_26_209
*759 FILLER_26_21
*760 FILLER_26_221
*761 FILLER_26_233
*762 FILLER_26_245
*763 FILLER_26_251
*764 FILLER_26_253
*765 FILLER_26_265
*766 FILLER_26_27
*767 FILLER_26_277
*768 FILLER_26_289
*769 FILLER_26_29
*770 FILLER_26_297
*771 FILLER_26_3
*772 FILLER_26_36
*773 FILLER_26_48
*774 FILLER_26_60
*775 FILLER_26_72
*776 FILLER_26_85
*777 FILLER_26_97
*778 FILLER_27_105
*779 FILLER_27_111
*780 FILLER_27_113
*781 FILLER_27_125
*782 FILLER_27_137
*783 FILLER_27_149
*784 FILLER_27_161
*785 FILLER_27_167
*786 FILLER_27_169
*787 FILLER_27_181
*788 FILLER_27_193
*789 FILLER_27_205
*790 FILLER_27_217
*791 FILLER_27_223
*792 FILLER_27_225
*793 FILLER_27_237
*794 FILLER_27_249
*795 FILLER_27_25
*796 FILLER_27_261
*797 FILLER_27_273
*798 FILLER_27_279
*799 FILLER_27_281
*800 FILLER_27_293
*801 FILLER_27_3
*802 FILLER_27_37
*803 FILLER_27_49
*804 FILLER_27_55
*805 FILLER_27_57
*806 FILLER_27_69
*807 FILLER_27_81
*808 FILLER_27_93
*809 FILLER_28_109
*810 FILLER_28_121
*811 FILLER_28_133
*812 FILLER_28_139
*813 FILLER_28_141
*814 FILLER_28_153
*815 FILLER_28_165
*816 FILLER_28_177
*817 FILLER_28_189
*818 FILLER_28_195
*819 FILLER_28_197
*820 FILLER_28_209
*821 FILLER_28_221
*822 FILLER_28_233
*823 FILLER_28_245
*824 FILLER_28_25
*825 FILLER_28_251
*826 FILLER_28_253
*827 FILLER_28_265
*828 FILLER_28_277
*829 FILLER_28_289
*830 FILLER_28_29
*831 FILLER_28_297
*832 FILLER_28_3
*833 FILLER_28_38
*834 FILLER_28_45
*835 FILLER_28_57
*836 FILLER_28_69
*837 FILLER_28_81
*838 FILLER_28_85
*839 FILLER_28_97
*840 FILLER_29_105
*841 FILLER_29_111
*842 FILLER_29_113
*843 FILLER_29_12
*844 FILLER_29_125
*845 FILLER_29_137
*846 FILLER_29_149
*847 FILLER_29_161
*848 FILLER_29_167
*849 FILLER_29_169
*850 FILLER_29_181
*851 FILLER_29_193
*852 FILLER_29_205
*853 FILLER_29_217
*854 FILLER_29_223
*855 FILLER_29_225
*856 FILLER_29_237
*857 FILLER_29_249
*858 FILLER_29_261
*859 FILLER_29_273
*860 FILLER_29_279
*861 FILLER_29_281
*862 FILLER_29_293
*863 FILLER_29_3
*864 FILLER_29_36
*865 FILLER_29_45
*866 FILLER_29_53
*867 FILLER_29_57
*868 FILLER_29_69
*869 FILLER_29_81
*870 FILLER_29_93
*871 FILLER_2_109
*872 FILLER_2_121
*873 FILLER_2_133
*874 FILLER_2_139
*875 FILLER_2_141
*876 FILLER_2_15
*877 FILLER_2_153
*878 FILLER_2_165
*879 FILLER_2_177
*880 FILLER_2_189
*881 FILLER_2_195
*882 FILLER_2_197
*883 FILLER_2_209
*884 FILLER_2_221
*885 FILLER_2_233
*886 FILLER_2_245
*887 FILLER_2_251
*888 FILLER_2_253
*889 FILLER_2_265
*890 FILLER_2_27
*891 FILLER_2_277
*892 FILLER_2_289
*893 FILLER_2_29
*894 FILLER_2_297
*895 FILLER_2_3
*896 FILLER_2_41
*897 FILLER_2_53
*898 FILLER_2_65
*899 FILLER_2_77
*900 FILLER_2_83
*901 FILLER_2_85
*902 FILLER_2_97
*903 FILLER_30_109
*904 FILLER_30_121
*905 FILLER_30_133
*906 FILLER_30_139
*907 FILLER_30_141
*908 FILLER_30_153
*909 FILLER_30_165
*910 FILLER_30_177
*911 FILLER_30_189
*912 FILLER_30_195
*913 FILLER_30_197
*914 FILLER_30_209
*915 FILLER_30_221
*916 FILLER_30_233
*917 FILLER_30_245
*918 FILLER_30_25
*919 FILLER_30_251
*920 FILLER_30_253
*921 FILLER_30_265
*922 FILLER_30_277
*923 FILLER_30_289
*924 FILLER_30_29
*925 FILLER_30_297
*926 FILLER_30_3
*927 FILLER_30_51
*928 FILLER_30_63
*929 FILLER_30_75
*930 FILLER_30_83
*931 FILLER_30_85
*932 FILLER_30_97
*933 FILLER_31_105
*934 FILLER_31_111
*935 FILLER_31_113
*936 FILLER_31_12
*937 FILLER_31_125
*938 FILLER_31_137
*939 FILLER_31_149
*940 FILLER_31_161
*941 FILLER_31_167
*942 FILLER_31_169
*943 FILLER_31_181
*944 FILLER_31_193
*945 FILLER_31_205
*946 FILLER_31_217
*947 FILLER_31_223
*948 FILLER_31_225
*949 FILLER_31_237
*950 FILLER_31_249
*951 FILLER_31_261
*952 FILLER_31_273
*953 FILLER_31_279
*954 FILLER_31_281
*955 FILLER_31_293
*956 FILLER_31_3
*957 FILLER_31_36
*958 FILLER_31_46
*959 FILLER_31_54
*960 FILLER_31_57
*961 FILLER_31_69
*962 FILLER_31_81
*963 FILLER_31_93
*964 FILLER_32_109
*965 FILLER_32_121
*966 FILLER_32_133
*967 FILLER_32_139
*968 FILLER_32_141
*969 FILLER_32_153
*970 FILLER_32_165
*971 FILLER_32_177
*972 FILLER_32_189
*973 FILLER_32_195
*974 FILLER_32_197
*975 FILLER_32_209
*976 FILLER_32_221
*977 FILLER_32_233
*978 FILLER_32_245
*979 FILLER_32_25
*980 FILLER_32_251
*981 FILLER_32_253
*982 FILLER_32_265
*983 FILLER_32_277
*984 FILLER_32_289
*985 FILLER_32_29
*986 FILLER_32_297
*987 FILLER_32_3
*988 FILLER_32_51
*989 FILLER_32_60
*990 FILLER_32_72
*991 FILLER_32_85
*992 FILLER_32_97
*993 FILLER_33_101
*994 FILLER_33_109
*995 FILLER_33_113
*996 FILLER_33_12
*997 FILLER_33_125
*998 FILLER_33_137
*999 FILLER_33_149
*1000 FILLER_33_161
*1001 FILLER_33_167
*1002 FILLER_33_169
*1003 FILLER_33_181
*1004 FILLER_33_193
*1005 FILLER_33_205
*1006 FILLER_33_217
*1007 FILLER_33_223
*1008 FILLER_33_225
*1009 FILLER_33_237
*1010 FILLER_33_249
*1011 FILLER_33_261
*1012 FILLER_33_273
*1013 FILLER_33_279
*1014 FILLER_33_281
*1015 FILLER_33_293
*1016 FILLER_33_3
*1017 FILLER_33_36
*1018 FILLER_33_47
*1019 FILLER_33_54
*1020 FILLER_33_57
*1021 FILLER_33_65
*1022 FILLER_33_77
*1023 FILLER_33_89
*1024 FILLER_34_109
*1025 FILLER_34_121
*1026 FILLER_34_133
*1027 FILLER_34_139
*1028 FILLER_34_141
*1029 FILLER_34_153
*1030 FILLER_34_165
*1031 FILLER_34_177
*1032 FILLER_34_189
*1033 FILLER_34_195
*1034 FILLER_34_197
*1035 FILLER_34_209
*1036 FILLER_34_221
*1037 FILLER_34_233
*1038 FILLER_34_245
*1039 FILLER_34_251
*1040 FILLER_34_253
*1041 FILLER_34_26
*1042 FILLER_34_265
*1043 FILLER_34_277
*1044 FILLER_34_289
*1045 FILLER_34_29
*1046 FILLER_34_297
*1047 FILLER_34_3
*1048 FILLER_34_51
*1049 FILLER_34_75
*1050 FILLER_34_83
*1051 FILLER_34_85
*1052 FILLER_34_97
*1053 FILLER_35_103
*1054 FILLER_35_111
*1055 FILLER_35_113
*1056 FILLER_35_125
*1057 FILLER_35_137
*1058 FILLER_35_149
*1059 FILLER_35_15
*1060 FILLER_35_161
*1061 FILLER_35_167
*1062 FILLER_35_169
*1063 FILLER_35_181
*1064 FILLER_35_193
*1065 FILLER_35_205
*1066 FILLER_35_217
*1067 FILLER_35_223
*1068 FILLER_35_225
*1069 FILLER_35_237
*1070 FILLER_35_249
*1071 FILLER_35_261
*1072 FILLER_35_273
*1073 FILLER_35_279
*1074 FILLER_35_281
*1075 FILLER_35_293
*1076 FILLER_35_3
*1077 FILLER_35_39
*1078 FILLER_35_51
*1079 FILLER_35_55
*1080 FILLER_35_57
*1081 FILLER_35_79
*1082 FILLER_35_91
*1083 FILLER_36_109
*1084 FILLER_36_121
*1085 FILLER_36_133
*1086 FILLER_36_139
*1087 FILLER_36_141
*1088 FILLER_36_153
*1089 FILLER_36_165
*1090 FILLER_36_177
*1091 FILLER_36_189
*1092 FILLER_36_195
*1093 FILLER_36_197
*1094 FILLER_36_209
*1095 FILLER_36_221
*1096 FILLER_36_233
*1097 FILLER_36_245
*1098 FILLER_36_251
*1099 FILLER_36_253
*1100 FILLER_36_26
*1101 FILLER_36_265
*1102 FILLER_36_277
*1103 FILLER_36_289
*1104 FILLER_36_29
*1105 FILLER_36_297
*1106 FILLER_36_3
*1107 FILLER_36_39
*1108 FILLER_36_65
*1109 FILLER_36_76
*1110 FILLER_36_85
*1111 FILLER_36_97
*1112 FILLER_37_101
*1113 FILLER_37_109
*1114 FILLER_37_113
*1115 FILLER_37_12
*1116 FILLER_37_125
*1117 FILLER_37_137
*1118 FILLER_37_149
*1119 FILLER_37_161
*1120 FILLER_37_167
*1121 FILLER_37_169
*1122 FILLER_37_181
*1123 FILLER_37_193
*1124 FILLER_37_205
*1125 FILLER_37_217
*1126 FILLER_37_223
*1127 FILLER_37_225
*1128 FILLER_37_237
*1129 FILLER_37_249
*1130 FILLER_37_261
*1131 FILLER_37_273
*1132 FILLER_37_279
*1133 FILLER_37_281
*1134 FILLER_37_293
*1135 FILLER_37_3
*1136 FILLER_37_36
*1137 FILLER_37_50
*1138 FILLER_37_57
*1139 FILLER_37_79
*1140 FILLER_37_90
*1141 FILLER_38_107
*1142 FILLER_38_119
*1143 FILLER_38_131
*1144 FILLER_38_139
*1145 FILLER_38_141
*1146 FILLER_38_153
*1147 FILLER_38_165
*1148 FILLER_38_177
*1149 FILLER_38_189
*1150 FILLER_38_195
*1151 FILLER_38_197
*1152 FILLER_38_209
*1153 FILLER_38_221
*1154 FILLER_38_233
*1155 FILLER_38_245
*1156 FILLER_38_251
*1157 FILLER_38_253
*1158 FILLER_38_26
*1159 FILLER_38_265
*1160 FILLER_38_277
*1161 FILLER_38_289
*1162 FILLER_38_29
*1163 FILLER_38_297
*1164 FILLER_38_3
*1165 FILLER_38_51
*1166 FILLER_38_75
*1167 FILLER_38_82
*1168 FILLER_38_85
*1169 FILLER_39_103
*1170 FILLER_39_111
*1171 FILLER_39_113
*1172 FILLER_39_12
*1173 FILLER_39_125
*1174 FILLER_39_137
*1175 FILLER_39_149
*1176 FILLER_39_161
*1177 FILLER_39_167
*1178 FILLER_39_169
*1179 FILLER_39_181
*1180 FILLER_39_193
*1181 FILLER_39_205
*1182 FILLER_39_217
*1183 FILLER_39_223
*1184 FILLER_39_225
*1185 FILLER_39_237
*1186 FILLER_39_249
*1187 FILLER_39_261
*1188 FILLER_39_273
*1189 FILLER_39_279
*1190 FILLER_39_281
*1191 FILLER_39_293
*1192 FILLER_39_3
*1193 FILLER_39_36
*1194 FILLER_39_49
*1195 FILLER_39_55
*1196 FILLER_39_57
*1197 FILLER_39_79
*1198 FILLER_3_105
*1199 FILLER_3_111
*1200 FILLER_3_113
*1201 FILLER_3_125
*1202 FILLER_3_137
*1203 FILLER_3_149
*1204 FILLER_3_15
*1205 FILLER_3_161
*1206 FILLER_3_167
*1207 FILLER_3_169
*1208 FILLER_3_181
*1209 FILLER_3_193
*1210 FILLER_3_205
*1211 FILLER_3_217
*1212 FILLER_3_223
*1213 FILLER_3_225
*1214 FILLER_3_237
*1215 FILLER_3_249
*1216 FILLER_3_261
*1217 FILLER_3_27
*1218 FILLER_3_273
*1219 FILLER_3_279
*1220 FILLER_3_281
*1221 FILLER_3_293
*1222 FILLER_3_3
*1223 FILLER_3_39
*1224 FILLER_3_51
*1225 FILLER_3_55
*1226 FILLER_3_57
*1227 FILLER_3_69
*1228 FILLER_3_81
*1229 FILLER_3_93
*1230 FILLER_40_107
*1231 FILLER_40_118
*1232 FILLER_40_130
*1233 FILLER_40_138
*1234 FILLER_40_141
*1235 FILLER_40_153
*1236 FILLER_40_165
*1237 FILLER_40_177
*1238 FILLER_40_189
*1239 FILLER_40_195
*1240 FILLER_40_197
*1241 FILLER_40_209
*1242 FILLER_40_221
*1243 FILLER_40_233
*1244 FILLER_40_245
*1245 FILLER_40_251
*1246 FILLER_40_253
*1247 FILLER_40_26
*1248 FILLER_40_265
*1249 FILLER_40_277
*1250 FILLER_40_289
*1251 FILLER_40_29
*1252 FILLER_40_297
*1253 FILLER_40_3
*1254 FILLER_40_39
*1255 FILLER_40_65
*1256 FILLER_40_77
*1257 FILLER_40_83
*1258 FILLER_40_85
*1259 FILLER_41_103
*1260 FILLER_41_111
*1261 FILLER_41_113
*1262 FILLER_41_122
*1263 FILLER_41_134
*1264 FILLER_41_146
*1265 FILLER_41_158
*1266 FILLER_41_16
*1267 FILLER_41_166
*1268 FILLER_41_169
*1269 FILLER_41_181
*1270 FILLER_41_193
*1271 FILLER_41_205
*1272 FILLER_41_217
*1273 FILLER_41_223
*1274 FILLER_41_225
*1275 FILLER_41_237
*1276 FILLER_41_249
*1277 FILLER_41_261
*1278 FILLER_41_273
*1279 FILLER_41_279
*1280 FILLER_41_281
*1281 FILLER_41_293
*1282 FILLER_41_3
*1283 FILLER_41_40
*1284 FILLER_41_52
*1285 FILLER_41_57
*1286 FILLER_41_79
*1287 FILLER_42_107
*1288 FILLER_42_119
*1289 FILLER_42_130
*1290 FILLER_42_138
*1291 FILLER_42_141
*1292 FILLER_42_153
*1293 FILLER_42_165
*1294 FILLER_42_177
*1295 FILLER_42_189
*1296 FILLER_42_195
*1297 FILLER_42_197
*1298 FILLER_42_209
*1299 FILLER_42_221
*1300 FILLER_42_233
*1301 FILLER_42_245
*1302 FILLER_42_251
*1303 FILLER_42_253
*1304 FILLER_42_26
*1305 FILLER_42_265
*1306 FILLER_42_277
*1307 FILLER_42_289
*1308 FILLER_42_29
*1309 FILLER_42_297
*1310 FILLER_42_3
*1311 FILLER_42_41
*1312 FILLER_42_65
*1313 FILLER_42_77
*1314 FILLER_42_83
*1315 FILLER_42_85
*1316 FILLER_43_10
*1317 FILLER_43_103
*1318 FILLER_43_111
*1319 FILLER_43_113
*1320 FILLER_43_123
*1321 FILLER_43_135
*1322 FILLER_43_147
*1323 FILLER_43_159
*1324 FILLER_43_167
*1325 FILLER_43_169
*1326 FILLER_43_181
*1327 FILLER_43_193
*1328 FILLER_43_205
*1329 FILLER_43_217
*1330 FILLER_43_223
*1331 FILLER_43_225
*1332 FILLER_43_237
*1333 FILLER_43_24
*1334 FILLER_43_249
*1335 FILLER_43_261
*1336 FILLER_43_273
*1337 FILLER_43_279
*1338 FILLER_43_281
*1339 FILLER_43_293
*1340 FILLER_43_3
*1341 FILLER_43_48
*1342 FILLER_43_57
*1343 FILLER_43_79
*1344 FILLER_44_107
*1345 FILLER_44_119
*1346 FILLER_44_131
*1347 FILLER_44_139
*1348 FILLER_44_141
*1349 FILLER_44_153
*1350 FILLER_44_165
*1351 FILLER_44_177
*1352 FILLER_44_189
*1353 FILLER_44_195
*1354 FILLER_44_197
*1355 FILLER_44_209
*1356 FILLER_44_221
*1357 FILLER_44_233
*1358 FILLER_44_245
*1359 FILLER_44_251
*1360 FILLER_44_253
*1361 FILLER_44_26
*1362 FILLER_44_265
*1363 FILLER_44_277
*1364 FILLER_44_289
*1365 FILLER_44_29
*1366 FILLER_44_297
*1367 FILLER_44_3
*1368 FILLER_44_51
*1369 FILLER_44_75
*1370 FILLER_44_83
*1371 FILLER_44_85
*1372 FILLER_45_103
*1373 FILLER_45_111
*1374 FILLER_45_113
*1375 FILLER_45_12
*1376 FILLER_45_125
*1377 FILLER_45_137
*1378 FILLER_45_149
*1379 FILLER_45_161
*1380 FILLER_45_167
*1381 FILLER_45_169
*1382 FILLER_45_181
*1383 FILLER_45_193
*1384 FILLER_45_205
*1385 FILLER_45_217
*1386 FILLER_45_223
*1387 FILLER_45_225
*1388 FILLER_45_237
*1389 FILLER_45_249
*1390 FILLER_45_261
*1391 FILLER_45_273
*1392 FILLER_45_279
*1393 FILLER_45_281
*1394 FILLER_45_293
*1395 FILLER_45_3
*1396 FILLER_45_36
*1397 FILLER_45_53
*1398 FILLER_45_57
*1399 FILLER_45_79
*1400 FILLER_46_107
*1401 FILLER_46_119
*1402 FILLER_46_131
*1403 FILLER_46_139
*1404 FILLER_46_141
*1405 FILLER_46_153
*1406 FILLER_46_165
*1407 FILLER_46_177
*1408 FILLER_46_189
*1409 FILLER_46_195
*1410 FILLER_46_197
*1411 FILLER_46_209
*1412 FILLER_46_221
*1413 FILLER_46_233
*1414 FILLER_46_245
*1415 FILLER_46_251
*1416 FILLER_46_253
*1417 FILLER_46_26
*1418 FILLER_46_265
*1419 FILLER_46_277
*1420 FILLER_46_289
*1421 FILLER_46_29
*1422 FILLER_46_297
*1423 FILLER_46_3
*1424 FILLER_46_41
*1425 FILLER_46_65
*1426 FILLER_46_78
*1427 FILLER_46_85
*1428 FILLER_47_103
*1429 FILLER_47_111
*1430 FILLER_47_113
*1431 FILLER_47_125
*1432 FILLER_47_137
*1433 FILLER_47_14
*1434 FILLER_47_149
*1435 FILLER_47_161
*1436 FILLER_47_167
*1437 FILLER_47_169
*1438 FILLER_47_181
*1439 FILLER_47_193
*1440 FILLER_47_205
*1441 FILLER_47_217
*1442 FILLER_47_223
*1443 FILLER_47_225
*1444 FILLER_47_237
*1445 FILLER_47_249
*1446 FILLER_47_261
*1447 FILLER_47_273
*1448 FILLER_47_279
*1449 FILLER_47_281
*1450 FILLER_47_293
*1451 FILLER_47_3
*1452 FILLER_47_38
*1453 FILLER_47_51
*1454 FILLER_47_55
*1455 FILLER_47_57
*1456 FILLER_47_79
*1457 FILLER_48_107
*1458 FILLER_48_119
*1459 FILLER_48_131
*1460 FILLER_48_139
*1461 FILLER_48_141
*1462 FILLER_48_153
*1463 FILLER_48_165
*1464 FILLER_48_177
*1465 FILLER_48_189
*1466 FILLER_48_195
*1467 FILLER_48_197
*1468 FILLER_48_209
*1469 FILLER_48_221
*1470 FILLER_48_233
*1471 FILLER_48_245
*1472 FILLER_48_251
*1473 FILLER_48_253
*1474 FILLER_48_26
*1475 FILLER_48_265
*1476 FILLER_48_277
*1477 FILLER_48_289
*1478 FILLER_48_29
*1479 FILLER_48_297
*1480 FILLER_48_3
*1481 FILLER_48_51
*1482 FILLER_48_75
*1483 FILLER_48_83
*1484 FILLER_48_85
*1485 FILLER_48_95
*1486 FILLER_49_100
*1487 FILLER_49_113
*1488 FILLER_49_125
*1489 FILLER_49_137
*1490 FILLER_49_149
*1491 FILLER_49_161
*1492 FILLER_49_167
*1493 FILLER_49_169
*1494 FILLER_49_181
*1495 FILLER_49_193
*1496 FILLER_49_205
*1497 FILLER_49_217
*1498 FILLER_49_223
*1499 FILLER_49_225
*1500 FILLER_49_237
*1501 FILLER_49_249
*1502 FILLER_49_25
*1503 FILLER_49_261
*1504 FILLER_49_273
*1505 FILLER_49_279
*1506 FILLER_49_281
*1507 FILLER_49_29
*1508 FILLER_49_293
*1509 FILLER_49_3
*1510 FILLER_49_50
*1511 FILLER_49_57
*1512 FILLER_49_79
*1513 FILLER_49_91
*1514 FILLER_4_109
*1515 FILLER_4_121
*1516 FILLER_4_133
*1517 FILLER_4_139
*1518 FILLER_4_141
*1519 FILLER_4_15
*1520 FILLER_4_153
*1521 FILLER_4_165
*1522 FILLER_4_177
*1523 FILLER_4_189
*1524 FILLER_4_195
*1525 FILLER_4_197
*1526 FILLER_4_209
*1527 FILLER_4_221
*1528 FILLER_4_233
*1529 FILLER_4_245
*1530 FILLER_4_251
*1531 FILLER_4_253
*1532 FILLER_4_265
*1533 FILLER_4_27
*1534 FILLER_4_277
*1535 FILLER_4_289
*1536 FILLER_4_29
*1537 FILLER_4_297
*1538 FILLER_4_3
*1539 FILLER_4_41
*1540 FILLER_4_53
*1541 FILLER_4_65
*1542 FILLER_4_77
*1543 FILLER_4_83
*1544 FILLER_4_85
*1545 FILLER_4_97
*1546 FILLER_50_106
*1547 FILLER_50_118
*1548 FILLER_50_130
*1549 FILLER_50_138
*1550 FILLER_50_141
*1551 FILLER_50_153
*1552 FILLER_50_165
*1553 FILLER_50_177
*1554 FILLER_50_189
*1555 FILLER_50_195
*1556 FILLER_50_197
*1557 FILLER_50_209
*1558 FILLER_50_221
*1559 FILLER_50_233
*1560 FILLER_50_245
*1561 FILLER_50_251
*1562 FILLER_50_253
*1563 FILLER_50_26
*1564 FILLER_50_265
*1565 FILLER_50_277
*1566 FILLER_50_289
*1567 FILLER_50_29
*1568 FILLER_50_297
*1569 FILLER_50_3
*1570 FILLER_50_51
*1571 FILLER_50_75
*1572 FILLER_50_83
*1573 FILLER_50_85
*1574 FILLER_50_95
*1575 FILLER_51_102
*1576 FILLER_51_110
*1577 FILLER_51_113
*1578 FILLER_51_125
*1579 FILLER_51_137
*1580 FILLER_51_149
*1581 FILLER_51_161
*1582 FILLER_51_167
*1583 FILLER_51_169