*SPEF "ieee 1481-1999"
*DESIGN "cchan_fp8_multiplier"
*DATE "11:11:11 Fri 11 11, 1111"
*VENDOR "OpenRCX"
*PROGRAM "Parallel Extraction"
*VERSION "1.0"
*DESIGN_FLOW "NAME_SCOPE LOCAL" "PIN_CAP NONE"
*DIVIDER /
*DELIMITER :
*BUS_DELIMITER []
*T_UNIT 1 NS
*C_UNIT 1 PF
*R_UNIT 1 OHM
*L_UNIT 1 HENRY

*NAME_MAP
*1 io_in[0]
*2 io_in[1]
*3 io_in[2]
*4 io_in[3]
*5 io_in[4]
*6 io_in[5]
*7 io_in[6]
*8 io_in[7]
*9 io_out[0]
*10 io_out[1]
*11 io_out[2]
*12 io_out[3]
*13 io_out[4]
*14 io_out[5]
*15 io_out[6]
*16 io_out[7]
*19 _000_
*20 _001_
*21 _002_
*22 _003_
*23 _004_
*24 _005_
*25 _006_
*26 _007_
*27 _008_
*28 _009_
*29 _010_
*30 _011_
*31 _012_
*32 _013_
*33 _014_
*34 _015_
*35 _016_
*36 _017_
*37 _018_
*38 _019_
*39 _020_
*40 _021_
*41 _022_
*42 _023_
*43 _024_
*44 _025_
*45 _026_
*46 _027_
*47 _028_
*48 _029_
*49 _030_
*50 _031_
*51 _032_
*52 _033_
*53 _034_
*54 _035_
*55 _036_
*56 _037_
*57 _038_
*58 _039_
*59 _040_
*60 _041_
*61 _042_
*62 _043_
*63 _044_
*64 _045_
*65 _046_
*66 _047_
*67 _048_
*68 _049_
*69 _050_
*70 _051_
*71 _052_
*72 _053_
*73 _054_
*74 _055_
*75 _056_
*76 _057_
*77 _058_
*78 _059_
*79 _060_
*80 _061_
*81 _062_
*82 _063_
*83 _064_
*84 _065_
*85 _066_
*86 _067_
*87 _068_
*88 _069_
*89 _070_
*90 _071_
*91 _072_
*92 _073_
*93 _074_
*94 _075_
*95 _076_
*96 _077_
*97 _078_
*98 _079_
*99 _080_
*100 _081_
*101 _082_
*102 _083_
*103 _084_
*104 _085_
*105 _086_
*106 _087_
*107 _088_
*108 _089_
*109 _090_
*110 _091_
*111 _092_
*112 _093_
*113 _094_
*114 _095_
*115 _096_
*116 _097_
*117 _098_
*118 _099_
*119 _100_
*120 _101_
*121 _102_
*122 _103_
*123 _104_
*124 _105_
*125 _106_
*126 _107_
*127 _108_
*128 _109_
*129 _110_
*130 _111_
*131 _112_
*132 _113_
*133 _114_
*134 _115_
*135 _116_
*136 _117_
*137 _118_
*138 _119_
*139 _120_
*140 _121_
*141 _122_
*142 _123_
*143 _124_
*144 _125_
*145 _126_
*146 _127_
*147 _128_
*148 _129_
*149 _130_
*150 _131_
*151 _132_
*152 _133_
*153 _134_
*154 _135_
*155 _136_
*156 _137_
*157 _138_
*158 _139_
*159 _140_
*160 _141_
*161 _142_
*162 _143_
*163 _144_
*164 _145_
*165 _146_
*166 _147_
*167 _148_
*168 _149_
*169 _150_
*170 _151_
*171 _152_
*172 clknet_0_io_in[0]
*173 clknet_1_0__leaf_io_in[0]
*174 clknet_1_1__leaf_io_in[0]
*175 mul1\.exp1\[0\]
*176 mul1\.exp1\[1\]
*177 mul1\.exp1\[2\]
*178 mul1\.exp1\[3\]
*179 mul1\.exp2\[0\]
*180 mul1\.exp2\[1\]
*181 mul1\.exp2\[2\]
*182 mul1\.exp2\[3\]
*183 mul1\.mant1\[0\]
*184 mul1\.mant1\[1\]
*185 mul1\.mant1\[2\]
*186 mul1\.mant2\[0\]
*187 mul1\.mant2\[1\]
*188 mul1\.mant2\[2\]
*189 mul1\.sign1
*190 mul1\.sign2
*191 mul1\.sign_out
*192 net1
*193 net2
*194 net3
*195 net4
*196 net5
*197 net6
*198 net7
*199 FILLER_0_109
*200 FILLER_0_113
*201 FILLER_0_125
*202 FILLER_0_137
*203 FILLER_0_141
*204 FILLER_0_153
*205 FILLER_0_165
*206 FILLER_0_169
*207 FILLER_0_181
*208 FILLER_0_193
*209 FILLER_0_197
*210 FILLER_0_209
*211 FILLER_0_221
*212 FILLER_0_225
*213 FILLER_0_237
*214 FILLER_0_249
*215 FILLER_0_253
*216 FILLER_0_26
*217 FILLER_0_265
*218 FILLER_0_277
*219 FILLER_0_281
*220 FILLER_0_29
*221 FILLER_0_293
*222 FILLER_0_3
*223 FILLER_0_47
*224 FILLER_0_55
*225 FILLER_0_57
*226 FILLER_0_75
*227 FILLER_0_83
*228 FILLER_0_85
*229 FILLER_0_9
*230 FILLER_0_97
*231 FILLER_10_109
*232 FILLER_10_121
*233 FILLER_10_13
*234 FILLER_10_133
*235 FILLER_10_139
*236 FILLER_10_141
*237 FILLER_10_153
*238 FILLER_10_165
*239 FILLER_10_177
*240 FILLER_10_189
*241 FILLER_10_195
*242 FILLER_10_197
*243 FILLER_10_209
*244 FILLER_10_221
*245 FILLER_10_233
*246 FILLER_10_245
*247 FILLER_10_25
*248 FILLER_10_251
*249 FILLER_10_253
*250 FILLER_10_265
*251 FILLER_10_277
*252 FILLER_10_289
*253 FILLER_10_29
*254 FILLER_10_297
*255 FILLER_10_3
*256 FILLER_10_41
*257 FILLER_10_53
*258 FILLER_10_65
*259 FILLER_10_77
*260 FILLER_10_83
*261 FILLER_10_85
*262 FILLER_10_97
*263 FILLER_11_105
*264 FILLER_11_111
*265 FILLER_11_113
*266 FILLER_11_125
*267 FILLER_11_137
*268 FILLER_11_149
*269 FILLER_11_15
*270 FILLER_11_161
*271 FILLER_11_167
*272 FILLER_11_169
*273 FILLER_11_181
*274 FILLER_11_193
*275 FILLER_11_205
*276 FILLER_11_217
*277 FILLER_11_223
*278 FILLER_11_225
*279 FILLER_11_237
*280 FILLER_11_249
*281 FILLER_11_261
*282 FILLER_11_27
*283 FILLER_11_273
*284 FILLER_11_279
*285 FILLER_11_281
*286 FILLER_11_293
*287 FILLER_11_3
*288 FILLER_11_39
*289 FILLER_11_51
*290 FILLER_11_55
*291 FILLER_11_57
*292 FILLER_11_69
*293 FILLER_11_81
*294 FILLER_11_93
*295 FILLER_12_109
*296 FILLER_12_121
*297 FILLER_12_133
*298 FILLER_12_139
*299 FILLER_12_141
*300 FILLER_12_153
*301 FILLER_12_165
*302 FILLER_12_177
*303 FILLER_12_189
*304 FILLER_12_195
*305 FILLER_12_197
*306 FILLER_12_20
*307 FILLER_12_209
*308 FILLER_12_221
*309 FILLER_12_233
*310 FILLER_12_245
*311 FILLER_12_251
*312 FILLER_12_253
*313 FILLER_12_265
*314 FILLER_12_277
*315 FILLER_12_289
*316 FILLER_12_29
*317 FILLER_12_297
*318 FILLER_12_3
*319 FILLER_12_41
*320 FILLER_12_53
*321 FILLER_12_65
*322 FILLER_12_72
*323 FILLER_12_8
*324 FILLER_12_85
*325 FILLER_12_97
*326 FILLER_13_105
*327 FILLER_13_111
*328 FILLER_13_113
*329 FILLER_13_125
*330 FILLER_13_137
*331 FILLER_13_149
*332 FILLER_13_15
*333 FILLER_13_161
*334 FILLER_13_167
*335 FILLER_13_169
*336 FILLER_13_181
*337 FILLER_13_193
*338 FILLER_13_205
*339 FILLER_13_217
*340 FILLER_13_223
*341 FILLER_13_225
*342 FILLER_13_237
*343 FILLER_13_249
*344 FILLER_13_261
*345 FILLER_13_27
*346 FILLER_13_273
*347 FILLER_13_279
*348 FILLER_13_281
*349 FILLER_13_293
*350 FILLER_13_3
*351 FILLER_13_39
*352 FILLER_13_51
*353 FILLER_13_55
*354 FILLER_13_57
*355 FILLER_13_69
*356 FILLER_13_8
*357 FILLER_13_81
*358 FILLER_13_93
*359 FILLER_14_109
*360 FILLER_14_121
*361 FILLER_14_133
*362 FILLER_14_139
*363 FILLER_14_14
*364 FILLER_14_141
*365 FILLER_14_153
*366 FILLER_14_165
*367 FILLER_14_177
*368 FILLER_14_18
*369 FILLER_14_189
*370 FILLER_14_195
*371 FILLER_14_197
*372 FILLER_14_209
*373 FILLER_14_221
*374 FILLER_14_233
*375 FILLER_14_245
*376 FILLER_14_25
*377 FILLER_14_251
*378 FILLER_14_253
*379 FILLER_14_265
*380 FILLER_14_277
*381 FILLER_14_289
*382 FILLER_14_29
*383 FILLER_14_297
*384 FILLER_14_3
*385 FILLER_14_41
*386 FILLER_14_53
*387 FILLER_14_65
*388 FILLER_14_77
*389 FILLER_14_8
*390 FILLER_14_83
*391 FILLER_14_85
*392 FILLER_14_97
*393 FILLER_15_105
*394 FILLER_15_11
*395 FILLER_15_111
*396 FILLER_15_113
*397 FILLER_15_125
*398 FILLER_15_137
*399 FILLER_15_149
*400 FILLER_15_161
*401 FILLER_15_167
*402 FILLER_15_169
*403 FILLER_15_18
*404 FILLER_15_181
*405 FILLER_15_193
*406 FILLER_15_205
*407 FILLER_15_217
*408 FILLER_15_223
*409 FILLER_15_225
*410 FILLER_15_237
*411 FILLER_15_249
*412 FILLER_15_25
*413 FILLER_15_261
*414 FILLER_15_273
*415 FILLER_15_279
*416 FILLER_15_281
*417 FILLER_15_293
*418 FILLER_15_3
*419 FILLER_15_32
*420 FILLER_15_44
*421 FILLER_15_57
*422 FILLER_15_69
*423 FILLER_15_81
*424 FILLER_15_93
*425 FILLER_16_109
*426 FILLER_16_121
*427 FILLER_16_133
*428 FILLER_16_139
*429 FILLER_16_141
*430 FILLER_16_153
*431 FILLER_16_16
*432 FILLER_16_165
*433 FILLER_16_177
*434 FILLER_16_189
*435 FILLER_16_195
*436 FILLER_16_197
*437 FILLER_16_209
*438 FILLER_16_221
*439 FILLER_16_23
*440 FILLER_16_233
*441 FILLER_16_245
*442 FILLER_16_251
*443 FILLER_16_253
*444 FILLER_16_265
*445 FILLER_16_27
*446 FILLER_16_277
*447 FILLER_16_289
*448 FILLER_16_29
*449 FILLER_16_297
*450 FILLER_16_3
*451 FILLER_16_40
*452 FILLER_16_52
*453 FILLER_16_62
*454 FILLER_16_74
*455 FILLER_16_82
*456 FILLER_16_85
*457 FILLER_16_97
*458 FILLER_17_105
*459 FILLER_17_11
*460 FILLER_17_111
*461 FILLER_17_113
*462 FILLER_17_125
*463 FILLER_17_137
*464 FILLER_17_149
*465 FILLER_17_15
*466 FILLER_17_161
*467 FILLER_17_167
*468 FILLER_17_169
*469 FILLER_17_181
*470 FILLER_17_19
*471 FILLER_17_193
*472 FILLER_17_205
*473 FILLER_17_217
*474 FILLER_17_223
*475 FILLER_17_225
*476 FILLER_17_237
*477 FILLER_17_249
*478 FILLER_17_261
*479 FILLER_17_273
*480 FILLER_17_279
*481 FILLER_17_281
*482 FILLER_17_293
*483 FILLER_17_3
*484 FILLER_17_32
*485 FILLER_17_44
*486 FILLER_17_57
*487 FILLER_17_69
*488 FILLER_17_7
*489 FILLER_17_81
*490 FILLER_17_93
*491 FILLER_18_109
*492 FILLER_18_121
*493 FILLER_18_133
*494 FILLER_18_139
*495 FILLER_18_141
*496 FILLER_18_153
*497 FILLER_18_165
*498 FILLER_18_177
*499 FILLER_18_189
*500 FILLER_18_195
*501 FILLER_18_197
*502 FILLER_18_209
*503 FILLER_18_221
*504 FILLER_18_233
*505 FILLER_18_245
*506 FILLER_18_25
*507 FILLER_18_251
*508 FILLER_18_253
*509 FILLER_18_265
*510 FILLER_18_277
*511 FILLER_18_289
*512 FILLER_18_29
*513 FILLER_18_297
*514 FILLER_18_3
*515 FILLER_18_40
*516 FILLER_18_52
*517 FILLER_18_64
*518 FILLER_18_76
*519 FILLER_18_8
*520 FILLER_18_85
*521 FILLER_18_97
*522 FILLER_19_101
*523 FILLER_19_109
*524 FILLER_19_113
*525 FILLER_19_125
*526 FILLER_19_137
*527 FILLER_19_14
*528 FILLER_19_149
*529 FILLER_19_161
*530 FILLER_19_167
*531 FILLER_19_169
*532 FILLER_19_181
*533 FILLER_19_193
*534 FILLER_19_205
*535 FILLER_19_217
*536 FILLER_19_223
*537 FILLER_19_225
*538 FILLER_19_237
*539 FILLER_19_249
*540 FILLER_19_261
*541 FILLER_19_27
*542 FILLER_19_273
*543 FILLER_19_279
*544 FILLER_19_281
*545 FILLER_19_293
*546 FILLER_19_3
*547 FILLER_19_36
*548 FILLER_19_44
*549 FILLER_19_54
*550 FILLER_19_57
*551 FILLER_19_65
*552 FILLER_19_77
*553 FILLER_19_89
*554 FILLER_1_104
*555 FILLER_1_113
*556 FILLER_1_125
*557 FILLER_1_137
*558 FILLER_1_149
*559 FILLER_1_15
*560 FILLER_1_161
*561 FILLER_1_167
*562 FILLER_1_169
*563 FILLER_1_181
*564 FILLER_1_193
*565 FILLER_1_205
*566 FILLER_1_217
*567 FILLER_1_223
*568 FILLER_1_225
*569 FILLER_1_237
*570 FILLER_1_249
*571 FILLER_1_261
*572 FILLER_1_273
*573 FILLER_1_279
*574 FILLER_1_281
*575 FILLER_1_293
*576 FILLER_1_3
*577 FILLER_1_36
*578 FILLER_1_48
*579 FILLER_1_57
*580 FILLER_1_75
*581 FILLER_1_92
*582 FILLER_20_109
*583 FILLER_20_12
*584 FILLER_20_121
*585 FILLER_20_133
*586 FILLER_20_139
*587 FILLER_20_141
*588 FILLER_20_153
*589 FILLER_20_165
*590 FILLER_20_177
*591 FILLER_20_189
*592 FILLER_20_195
*593 FILLER_20_197
*594 FILLER_20_209
*595 FILLER_20_221
*596 FILLER_20_233
*597 FILLER_20_245
*598 FILLER_20_25
*599 FILLER_20_251
*600 FILLER_20_253
*601 FILLER_20_265
*602 FILLER_20_277
*603 FILLER_20_289
*604 FILLER_20_29
*605 FILLER_20_297
*606 FILLER_20_3
*607 FILLER_20_47
*608 FILLER_20_59
*609 FILLER_20_71
*610 FILLER_20_83
*611 FILLER_20_85
*612 FILLER_20_97
*613 FILLER_21_105
*614 FILLER_21_111
*615 FILLER_21_113
*616 FILLER_21_125
*617 FILLER_21_137
*618 FILLER_21_14
*619 FILLER_21_149
*620 FILLER_21_161
*621 FILLER_21_167
*622 FILLER_21_169
*623 FILLER_21_181
*624 FILLER_21_193
*625 FILLER_21_205
*626 FILLER_21_217
*627 FILLER_21_223
*628 FILLER_21_225
*629 FILLER_21_237
*630 FILLER_21_24
*631 FILLER_21_249
*632 FILLER_21_261
*633 FILLER_21_273
*634 FILLER_21_279
*635 FILLER_21_281
*636 FILLER_21_293
*637 FILLER_21_3
*638 FILLER_21_37
*639 FILLER_21_45
*640 FILLER_21_53
*641 FILLER_21_57
*642 FILLER_21_69
*643 FILLER_21_8
*644 FILLER_21_81
*645 FILLER_21_93
*646 FILLER_22_109
*647 FILLER_22_121
*648 FILLER_22_133
*649 FILLER_22_139
*650 FILLER_22_14
*651 FILLER_22_141
*652 FILLER_22_153
*653 FILLER_22_165
*654 FILLER_22_177
*655 FILLER_22_189
*656 FILLER_22_195
*657 FILLER_22_197
*658 FILLER_22_209
*659 FILLER_22_21
*660 FILLER_22_221
*661 FILLER_22_233
*662 FILLER_22_245
*663 FILLER_22_251
*664 FILLER_22_253
*665 FILLER_22_265
*666 FILLER_22_27
*667 FILLER_22_277
*668 FILLER_22_289
*669 FILLER_22_29
*670 FILLER_22_297
*671 FILLER_22_3
*672 FILLER_22_33
*673 FILLER_22_39
*674 FILLER_22_57
*675 FILLER_22_69
*676 FILLER_22_75
*677 FILLER_22_83
*678 FILLER_22_85
*679 FILLER_22_97
*680 FILLER_23_10
*681 FILLER_23_110
*682 FILLER_23_113
*683 FILLER_23_125
*684 FILLER_23_137
*685 FILLER_23_149
*686 FILLER_23_161
*687 FILLER_23_167
*688 FILLER_23_169
*689 FILLER_23_181
*690 FILLER_23_193
*691 FILLER_23_205
*692 FILLER_23_217
*693 FILLER_23_223
*694 FILLER_23_225
*695 FILLER_23_23
*696 FILLER_23_237
*697 FILLER_23_249
*698 FILLER_23_261
*699 FILLER_23_273
*700 FILLER_23_279
*701 FILLER_23_281
*702 FILLER_23_293
*703 FILLER_23_3
*704 FILLER_23_31
*705 FILLER_23_43
*706 FILLER_23_50
*707 FILLER_23_57
*708 FILLER_23_66
*709 FILLER_23_74
*710 FILLER_23_84
*711 FILLER_24_109
*712 FILLER_24_121
*713 FILLER_24_133
*714 FILLER_24_139
*715 FILLER_24_141
*716 FILLER_24_15
*717 FILLER_24_153
*718 FILLER_24_165
*719 FILLER_24_177
*720 FILLER_24_189
*721 FILLER_24_195
*722 FILLER_24_197
*723 FILLER_24_209
*724 FILLER_24_221
*725 FILLER_24_233
*726 FILLER_24_245
*727 FILLER_24_251
*728 FILLER_24_253
*729 FILLER_24_265
*730 FILLER_24_27
*731 FILLER_24_277
*732 FILLER_24_289
*733 FILLER_24_29
*734 FILLER_24_297
*735 FILLER_24_3
*736 FILLER_24_41
*737 FILLER_24_49
*738 FILLER_24_60
*739 FILLER_24_74
*740 FILLER_24_8
*741 FILLER_24_81
*742 FILLER_24_85
*743 FILLER_24_97
*744 FILLER_25_108
*745 FILLER_25_113
*746 FILLER_25_125
*747 FILLER_25_137
*748 FILLER_25_14
*749 FILLER_25_149
*750 FILLER_25_161
*751 FILLER_25_167
*752 FILLER_25_169
*753 FILLER_25_181
*754 FILLER_25_193
*755 FILLER_25_205
*756 FILLER_25_217
*757 FILLER_25_223
*758 FILLER_25_225
*759 FILLER_25_23
*760 FILLER_25_237
*761 FILLER_25_249
*762 FILLER_25_261
*763 FILLER_25_273
*764 FILLER_25_279
*765 FILLER_25_281
*766 FILLER_25_293
*767 FILLER_25_3
*768 FILLER_25_35
*769 FILLER_25_42
*770 FILLER_25_54
*771 FILLER_25_57
*772 FILLER_25_67
*773 FILLER_25_78
*774 FILLER_25_87
*775 FILLER_26_102
*776 FILLER_26_114
*777 FILLER_26_126
*778 FILLER_26_138
*779 FILLER_26_141
*780 FILLER_26_153
*781 FILLER_26_165
*782 FILLER_26_177
*783 FILLER_26_189
*784 FILLER_26_19
*785 FILLER_26_195
*786 FILLER_26_197
*787 FILLER_26_209
*788 FILLER_26_221
*789 FILLER_26_233
*790 FILLER_26_245
*791 FILLER_26_251
*792 FILLER_26_253
*793 FILLER_26_265
*794 FILLER_26_27
*795 FILLER_26_277
*796 FILLER_26_289
*797 FILLER_26_29
*798 FILLER_26_297
*799 FILLER_26_3
*800 FILLER_26_37
*801 FILLER_26_44
*802 FILLER_26_53
*803 FILLER_26_65
*804 FILLER_26_69
*805 FILLER_26_82
*806 FILLER_26_85
*807 FILLER_26_9
*808 FILLER_26_92
*809 FILLER_27_103
*810 FILLER_27_111
*811 FILLER_27_113
*812 FILLER_27_125
*813 FILLER_27_137
*814 FILLER_27_149
*815 FILLER_27_161
*816 FILLER_27_167
*817 FILLER_27_169
*818 FILLER_27_181
*819 FILLER_27_193
*820 FILLER_27_20
*821 FILLER_27_205
*822 FILLER_27_217
*823 FILLER_27_223
*824 FILLER_27_225
*825 FILLER_27_237
*826 FILLER_27_249
*827 FILLER_27_261
*828 FILLER_27_273
*829 FILLER_27_279
*830 FILLER_27_281
*831 FILLER_27_293
*832 FILLER_27_3
*833 FILLER_27_32
*834 FILLER_27_38
*835 FILLER_27_45
*836 FILLER_27_54
*837 FILLER_27_57
*838 FILLER_27_67
*839 FILLER_27_77
*840 FILLER_27_8
*841 FILLER_28_115
*842 FILLER_28_127
*843 FILLER_28_139
*844 FILLER_28_141
*845 FILLER_28_15
*846 FILLER_28_153
*847 FILLER_28_165
*848 FILLER_28_177
*849 FILLER_28_189
*850 FILLER_28_195
*851 FILLER_28_197
*852 FILLER_28_209
*853 FILLER_28_221
*854 FILLER_28_233
*855 FILLER_28_245
*856 FILLER_28_251
*857 FILLER_28_253
*858 FILLER_28_265
*859 FILLER_28_27
*860 FILLER_28_277
*861 FILLER_28_289
*862 FILLER_28_29
*863 FILLER_28_297
*864 FILLER_28_3
*865 FILLER_28_41
*866 FILLER_28_50
*867 FILLER_28_56
*868 FILLER_28_60
*869 FILLER_28_74
*870 FILLER_28_82
*871 FILLER_28_85
*872 FILLER_29_104
*873 FILLER_29_113
*874 FILLER_29_125
*875 FILLER_29_137
*876 FILLER_29_149
*877 FILLER_29_15
*878 FILLER_29_161
*879 FILLER_29_167
*880 FILLER_29_169
*881 FILLER_29_181
*882 FILLER_29_193
*883 FILLER_29_205
*884 FILLER_29_217
*885 FILLER_29_223
*886 FILLER_29_225
*887 FILLER_29_237
*888 FILLER_29_249
*889 FILLER_29_261
*890 FILLER_29_27
*891 FILLER_29_273
*892 FILLER_29_279
*893 FILLER_29_281
*894 FILLER_29_293
*895 FILLER_29_3
*896 FILLER_29_35
*897 FILLER_29_41
*898 FILLER_29_49
*899 FILLER_29_54
*900 FILLER_29_57
*901 FILLER_29_64
*902 FILLER_29_90
*903 FILLER_29_96
*904 FILLER_2_109
*905 FILLER_2_121
*906 FILLER_2_133
*907 FILLER_2_139
*908 FILLER_2_141
*909 FILLER_2_153
*910 FILLER_2_165
*911 FILLER_2_177
*912 FILLER_2_189
*913 FILLER_2_195
*914 FILLER_2_197
*915 FILLER_2_209
*916 FILLER_2_22
*917 FILLER_2_221
*918 FILLER_2_233
*919 FILLER_2_245
*920 FILLER_2_251
*921 FILLER_2_253
*922 FILLER_2_265
*923 FILLER_2_277
*924 FILLER_2_289
*925 FILLER_2_29
*926 FILLER_2_297
*927 FILLER_2_3
*928 FILLER_2_48
*929 FILLER_2_68
*930 FILLER_2_80
*931 FILLER_2_85
*932 FILLER_2_97
*933 FILLER_30_100
*934 FILLER_30_112
*935 FILLER_30_124
*936 FILLER_30_136
*937 FILLER_30_141
*938 FILLER_30_15
*939 FILLER_30_153
*940 FILLER_30_165
*941 FILLER_30_177
*942 FILLER_30_189
*943 FILLER_30_195
*944 FILLER_30_197
*945 FILLER_30_209
*946 FILLER_30_221
*947 FILLER_30_233
*948 FILLER_30_245
*949 FILLER_30_251
*950 FILLER_30_253
*951 FILLER_30_265
*952 FILLER_30_27
*953 FILLER_30_277
*954 FILLER_30_289
*955 FILLER_30_29
*956 FILLER_30_297
*957 FILLER_30_3
*958 FILLER_30_40
*959 FILLER_30_54
*960 FILLER_30_62
*961 FILLER_30_72
*962 FILLER_30_78
*963 FILLER_30_82
*964 FILLER_30_85
*965 FILLER_30_9
*966 FILLER_31_100
*967 FILLER_31_113
*968 FILLER_31_125
*969 FILLER_31_137
*970 FILLER_31_149
*971 FILLER_31_16
*972 FILLER_31_161
*973 FILLER_31_167
*974 FILLER_31_169
*975 FILLER_31_181
*976 FILLER_31_193
*977 FILLER_31_205
*978 FILLER_31_217
*979 FILLER_31_223
*980 FILLER_31_225
*981 FILLER_31_237
*982 FILLER_31_249
*983 FILLER_31_261
*984 FILLER_31_273
*985 FILLER_31_279
*986 FILLER_31_28
*987 FILLER_31_281
*988 FILLER_31_293
*989 FILLER_31_3
*990 FILLER_31_36
*991 FILLER_31_41
*992 FILLER_31_53
*993 FILLER_31_57
*994 FILLER_31_63
*995 FILLER_31_71
*996 FILLER_31_89
*997 FILLER_32_104
*998 FILLER_32_116
*999 FILLER_32_128
*1000 FILLER_32_141
*1001 FILLER_32_15
*1002 FILLER_32_153
*1003 FILLER_32_165
*1004 FILLER_32_177
*1005 FILLER_32_189
*1006 FILLER_32_195
*1007 FILLER_32_197
*1008 FILLER_32_209
*1009 FILLER_32_221
*1010 FILLER_32_233
*1011 FILLER_32_245
*1012 FILLER_32_251
*1013 FILLER_32_253
*1014 FILLER_32_26
*1015 FILLER_32_265
*1016 FILLER_32_277
*1017 FILLER_32_289
*1018 FILLER_32_29
*1019 FILLER_32_297
*1020 FILLER_32_3
*1021 FILLER_32_37
*1022 FILLER_32_47
*1023 FILLER_32_59
*1024 FILLER_32_71
*1025 FILLER_32_83
*1026 FILLER_32_85
*1027 FILLER_32_92
*1028 FILLER_33_100
*1029 FILLER_33_107
*1030 FILLER_33_111
*1031 FILLER_33_113
*1032 FILLER_33_125
*1033 FILLER_33_13
*1034 FILLER_33_137
*1035 FILLER_33_149
*1036 FILLER_33_161
*1037 FILLER_33_167
*1038 FILLER_33_169
*1039 FILLER_33_181
*1040 FILLER_33_193
*1041 FILLER_33_205
*1042 FILLER_33_217
*1043 FILLER_33_223
*1044 FILLER_33_225
*1045 FILLER_33_237
*1046 FILLER_33_249
*1047 FILLER_33_25
*1048 FILLER_33_261
*1049 FILLER_33_273
*1050 FILLER_33_279
*1051 FILLER_33_281
*1052 FILLER_33_293
*1053 FILLER_33_3
*1054 FILLER_33_37
*1055 FILLER_33_47
*1056 FILLER_33_55
*1057 FILLER_33_57
*1058 FILLER_33_66
*1059 FILLER_33_78
*1060 FILLER_33_92
*1061 FILLER_34_100
*1062 FILLER_34_112
*1063 FILLER_34_124
*1064 FILLER_34_136
*1065 FILLER_34_141
*1066 FILLER_34_15
*1067 FILLER_34_153
*1068 FILLER_34_165
*1069 FILLER_34_177
*1070 FILLER_34_189
*1071 FILLER_34_195
*1072 FILLER_34_197
*1073 FILLER_34_209
*1074 FILLER_34_221
*1075 FILLER_34_233
*1076 FILLER_34_245
*1077 FILLER_34_251
*1078 FILLER_34_253
*1079 FILLER_34_265
*1080 FILLER_34_27
*1081 FILLER_34_277
*1082 FILLER_34_289
*1083 FILLER_34_29
*1084 FILLER_34_297
*1085 FILLER_34_3
*1086 FILLER_34_34
*1087 FILLER_34_45
*1088 FILLER_34_56
*1089 FILLER_34_62
*1090 FILLER_34_66
*1091 FILLER_34_82
*1092 FILLER_34_85
*1093 FILLER_35_105
*1094 FILLER_35_111
*1095 FILLER_35_113
*1096 FILLER_35_125
*1097 FILLER_35_137
*1098 FILLER_35_149
*1099 FILLER_35_15
*1100 FILLER_35_161
*1101 FILLER_35_167
*1102 FILLER_35_169
*1103 FILLER_35_181
*1104 FILLER_35_193
*1105 FILLER_35_205
*1106 FILLER_35_217
*1107 FILLER_35_223
*1108 FILLER_35_225
*1109 FILLER_35_237
*1110 FILLER_35_24
*1111 FILLER_35_249
*1112 FILLER_35_261
*1113 FILLER_35_273
*1114 FILLER_35_279
*1115 FILLER_35_28
*1116 FILLER_35_281
*1117 FILLER_35_293
*1118 FILLER_35_3
*1119 FILLER_35_35
*1120 FILLER_35_43
*1121 FILLER_35_55
*1122 FILLER_35_57
*1123 FILLER_35_82
*1124 FILLER_35_93
*1125 FILLER_36_116
*1126 FILLER_36_128
*1127 FILLER_36_141
*1128 FILLER_36_15
*1129 FILLER_36_153
*1130 FILLER_36_165
*1131 FILLER_36_177
*1132 FILLER_36_189
*1133 FILLER_36_195
*1134 FILLER_36_197
*1135 FILLER_36_209
*1136 FILLER_36_221
*1137 FILLER_36_233
*1138 FILLER_36_24
*1139 FILLER_36_245
*1140 FILLER_36_251
*1141 FILLER_36_253
*1142 FILLER_36_265
*1143 FILLER_36_277
*1144 FILLER_36_289
*1145 FILLER_36_29
*1146 FILLER_36_297
*1147 FILLER_36_3
*1148 FILLER_36_41
*1149 FILLER_36_47
*1150 FILLER_36_57
*1151 FILLER_36_63
*1152 FILLER_36_70
*1153 FILLER_36_76
*1154 FILLER_36_82
*1155 FILLER_36_85
*1156 FILLER_36_92
*1157 FILLER_36_98
*1158 FILLER_37_106
*1159 FILLER_37_113
*1160 FILLER_37_12
*1161 FILLER_37_125
*1162 FILLER_37_137
*1163 FILLER_37_149
*1164 FILLER_37_161
*1165 FILLER_37_167
*1166 FILLER_37_169
*1167 FILLER_37_181
*1168 FILLER_37_193
*1169 FILLER_37_205
*1170 FILLER_37_217
*1171 FILLER_37_223
*1172 FILLER_37_225
*1173 FILLER_37_237
*1174 FILLER_37_24
*1175 FILLER_37_249
*1176 FILLER_37_261
*1177 FILLER_37_273
*1178 FILLER_37_279
*1179 FILLER_37_281
*1180 FILLER_37_293
*1181 FILLER_37_3
*1182 FILLER_37_42
*1183 FILLER_37_46
*1184 FILLER_37_54
*1185 FILLER_37_57
*1186 FILLER_37_72
*1187 FILLER_37_80
*1188 FILLER_37_94
*1189 FILLER_38_109
*1190 FILLER_38_12
*1191 FILLER_38_121
*1192 FILLER_38_133
*1193 FILLER_38_139
*1194 FILLER_38_141
*1195 FILLER_38_153
*1196 FILLER_38_165
*1197 FILLER_38_177
*1198 FILLER_38_189
*1199 FILLER_38_195
*1200 FILLER_38_197
*1201 FILLER_38_209
*1202 FILLER_38_221
*1203 FILLER_38_233
*1204 FILLER_38_24
*1205 FILLER_38_245
*1206 FILLER_38_251
*1207 FILLER_38_253
*1208 FILLER_38_265
*1209 FILLER_38_277
*1210 FILLER_38_289
*1211 FILLER_38_29
*1212 FILLER_38_297
*1213 FILLER_38_3
*1214 FILLER_38_38
*1215 FILLER_38_51
*1216 FILLER_38_63
*1217 FILLER_38_70
*1218 FILLER_38_82
*1219 FILLER_38_85
*1220 FILLER_38_97
*1221 FILLER_39_111
*1222 FILLER_39_113
*1223 FILLER_39_125
*1224 FILLER_39_137
*1225 FILLER_39_149
*1226 FILLER_39_16
*1227 FILLER_39_161
*1228 FILLER_39_167
*1229 FILLER_39_169
*1230 FILLER_39_181
*1231 FILLER_39_193
*1232 FILLER_39_205
*1233 FILLER_39_217
*1234 FILLER_39_223
*1235 FILLER_39_225
*1236 FILLER_39_237
*1237 FILLER_39_249
*1238 FILLER_39_261
*1239 FILLER_39_273
*1240 FILLER_39_279
*1241 FILLER_39_28
*1242 FILLER_39_281
*1243 FILLER_39_293
*1244 FILLER_39_3
*1245 FILLER_39_34
*1246 FILLER_39_38
*1247 FILLER_39_44
*1248 FILLER_39_57
*1249 FILLER_39_63
*1250 FILLER_39_75
*1251 FILLER_39_87
*1252 FILLER_39_99
*1253 FILLER_3_111
*1254 FILLER_3_113
*1255 FILLER_3_125
*1256 FILLER_3_137
*1257 FILLER_3_149
*1258 FILLER_3_161
*1259 FILLER_3_167
*1260 FILLER_3_169
*1261 FILLER_3_181
*1262 FILLER_3_193
*1263 FILLER_3_205
*1264 FILLER_3_217
*1265 FILLER_3_223
*1266 FILLER_3_225
*1267 FILLER_3_237
*1268 FILLER_3_249
*1269 FILLER_3_25
*1270 FILLER_3_261
*1271 FILLER_3_273
*1272 FILLER_3_279
*1273 FILLER_3_281
*1274 FILLER_3_293
*1275 FILLER_3_3
*1276 FILLER_3_48
*1277 FILLER_3_57
*1278 FILLER_3_75
*1279 FILLER_3_87
*1280 FILLER_3_99
*1281 FILLER_40_109
*1282 FILLER_40_121
*1283 FILLER_40_133
*1284 FILLER_40_139
*1285 FILLER_40_141
*1286 FILLER_40_15
*1287 FILLER_40_153
*1288 FILLER_40_165
*1289 FILLER_40_177
*1290 FILLER_40_189
*1291 FILLER_40_195
*1292 FILLER_40_197
*1293 FILLER_40_209
*1294 FILLER_40_221
*1295 FILLER_40_233
*1296 FILLER_40_245
*1297 FILLER_40_251
*1298 FILLER_40_253
*1299 FILLER_40_265
*1300 FILLER_40_27
*1301 FILLER_40_277
*1302 FILLER_40_289
*1303 FILLER_40_29
*1304 FILLER_40_297
*1305 FILLER_40_3
*1306 FILLER_40_36
*1307 FILLER_40_44
*1308 FILLER_40_51
*1309 FILLER_40_65
*1310 FILLER_40_77
*1311 FILLER_40_83
*1312 FILLER_40_85
*1313 FILLER_40_97
*1314 FILLER_41_110
*1315 FILLER_41_113
*1316 FILLER_41_125
*1317 FILLER_41_137
*1318 FILLER_41_149
*1319 FILLER_41_15
*1320 FILLER_41_161
*1321 FILLER_41_167
*1322 FILLER_41_169
*1323 FILLER_41_181
*1324 FILLER_41_19
*1325 FILLER_41_193
*1326 FILLER_41_205
*1327 FILLER_41_217
*1328 FILLER_41_223
*1329 FILLER_41_225
*1330 FILLER_41_237
*1331 FILLER_41_249
*1332 FILLER_41_26
*1333 FILLER_41_261
*1334 FILLER_41_273
*1335 FILLER_41_279
*1336 FILLER_41_281
*1337 FILLER_41_293
*1338 FILLER_41_3
*1339 FILLER_41_35
*1340 FILLER_41_47
*1341 FILLER_41_54
*1342 FILLER_41_57
*1343 FILLER_41_68
*1344 FILLER_41_81
*1345 FILLER_41_98
*1346 FILLER_42_109
*1347 FILLER_42_121
*1348 FILLER_42_133
*1349 FILLER_42_139
*1350 FILLER_42_141
*1351 FILLER_42_15
*1352 FILLER_42_153
*1353 FILLER_42_165
*1354 FILLER_42_177
*1355 FILLER_42_189
*1356 FILLER_42_195
*1357 FILLER_42_197
*1358 FILLER_42_209
*1359 FILLER_42_221
*1360 FILLER_42_233
*1361 FILLER_42_245
*1362 FILLER_42_251
*1363 FILLER_42_253
*1364 FILLER_42_26
*1365 FILLER_42_265
*1366 FILLER_42_277
*1367 FILLER_42_289
*1368 FILLER_42_29
*1369 FILLER_42_297
*1370 FILLER_42_3
*1371 FILLER_42_35
*1372 FILLER_42_49
*1373 FILLER_42_60
*1374 FILLER_42_72
*1375 FILLER_42_85
*1376 FILLER_42_9
*1377 FILLER_42_97
*1378 FILLER_43_105
*1379 FILLER_43_111
*1380 FILLER_43_113
*1381 FILLER_43_125
*1382 FILLER_43_137
*1383 FILLER_43_149
*1384 FILLER_43_161
*1385 FILLER_43_167
*1386 FILLER_43_169
*1387 FILLER_43_181
*1388 FILLER_43_193
*1389 FILLER_43_205
*1390 FILLER_43_217
*1391 FILLER_43_223
*1392 FILLER_43_225
*1393 FILLER_43_237
*1394 FILLER_43_249
*1395 FILLER_43_26
*1396 FILLER_43_261
*1397 FILLER_43_273
*1398 FILLER_43_279
*1399 FILLER_43_281
*1400 FILLER_43_293
*1401 FILLER_43_3
*1402 FILLER_43_34
*1403 FILLER_43_39
*1404 FILLER_43_51
*1405 FILLER_43_55
*1406 FILLER_43_57
*1407 FILLER_43_69
*1408 FILLER_43_81
*1409 FILLER_43_9
*1410 FILLER_43_93
*1411 FILLER_44_109
*1412 FILLER_44_121
*1413 FILLER_44_133
*1414 FILLER_44_139
*1415 FILLER_44_141
*1416 FILLER_44_15
*1417 FILLER_44_153
*1418 FILLER_44_165
*1419 FILLER_44_177
*1420 FILLER_44_189
*1421 FILLER_44_195
*1422 FILLER_44_197
*1423 FILLER_44_209
*1424 FILLER_44_221
*1425 FILLER_44_233
*1426 FILLER_44_245
*1427 FILLER_44_251
*1428 FILLER_44_253
*1429 FILLER_44_26
*1430 FILLER_44_265
*1431 FILLER_44_277
*1432 FILLER_44_289
*1433 FILLER_44_29
*1434 FILLER_44_297
*1435 FILLER_44_3
*1436 FILLER_44_41
*1437 FILLER_44_45
*1438 FILLER_44_55
*1439 FILLER_44_67
*1440 FILLER_44_79
*1441 FILLER_44_83
*1442 FILLER_44_85
*1443 FILLER_44_97
*1444 FILLER_45_105
*1445 FILLER_45_111
*1446 FILLER_45_113
*1447 FILLER_45_125
*1448 FILLER_45_13
*1449 FILLER_45_137
*1450 FILLER_45_149
*1451 FILLER_45_161
*1452 FILLER_45_167
*1453 FILLER_45_169
*1454 FILLER_45_181
*1455 FILLER_45_193
*1456 FILLER_45_205
*1457 FILLER_45_217
*1458 FILLER_45_223
*1459 FILLER_45_225
*1460 FILLER_45_237
*1461 FILLER_45_249
*1462 FILLER_45_261
*1463 FILLER_45_273
*1464 FILLER_45_279
*1465 FILLER_45_281
*1466 FILLER_45_293
*1467 FILLER_45_3
*1468 FILLER_45_32
*1469 FILLER_45_44
*1470 FILLER_45_57
*1471 FILLER_45_65
*1472 FILLER_45_81
*1473 FILLER_45_93
*1474 FILLER_46_109
*1475 FILLER_46_121
*1476 FILLER_46_133
*1477 FILLER_46_139
*1478 FILLER_46_141
*1479 FILLER_46_15
*1480 FILLER_46_153
*1481 FILLER_46_165
*1482 FILLER_46_177
*1483 FILLER_46_189
*1484 FILLER_46_195
*1485 FILLER_46_197
*1486 FILLER_46_209
*1487 FILLER_46_221
*1488 FILLER_46_233
*1489 FILLER_46_245
*1490 FILLER_46_251
*1491 FILLER_46_253
*1492 FILLER_46_265
*1493 FILLER_46_27
*1494 FILLER_46_277
*1495 FILLER_46_289
*1496 FILLER_46_29
*1497 FILLER_46_297
*1498 FILLER_46_3
*1499 FILLER_46_41
*1500 FILLER_46_53
*1501 FILLER_46_61
*1502 FILLER_46_73
*1503 FILLER_46_81
*1504 FILLER_46_85
*1505 FILLER_46_97
*1506 FILLER_47_10
*1507 FILLER_47_105
*1508 FILLER_47_111
*1509 FILLER_47_113
*1510 FILLER_47_125
*1511 FILLER_47_137
*1512 FILLER_47_149
*1513 FILLER_47_161
*1514 FILLER_47_167
*1515 FILLER_47_169
*1516 FILLER_47_181
*1517 FILLER_47_193
*1518 FILLER_47_205
*1519 FILLER_47_217
*1520 FILLER_47_22
*1521 FILLER_47_223
*1522 FILLER_47_225
*1523 FILLER_47_237
*1524 FILLER_47_249
*1525 FILLER_47_261
*1526 FILLER_47_273
*1527 FILLER_47_279
*1528 FILLER_47_281
*1529 FILLER_47_293
*1530 FILLER_47_3
*1531 FILLER_47_33
*1532 FILLER_47_45
*1533 FILLER_47_53
*1534 FILLER_47_57
*1535 FILLER_47_69
*1536 FILLER_47_81
*1537 FILLER_47_93
*1538 FILLER_48_109
*1539 FILLER_48_121
*1540 FILLER_48_133
*1541 FILLER_48_139
*1542 FILLER_48_141
*1543 FILLER_48_15
*1544 FILLER_48_153
*1545 FILLER_48_165
*1546 FILLER_48_177
*1547 FILLER_48_189
*1548 FILLER_48_195
*1549 FILLER_48_197
*1550 FILLER_48_209
*1551 FILLER_48_221
*1552 FILLER_48_233
*1553 FILLER_48_245
*1554 FILLER_48_251
*1555 FILLER_48_253
*1556 FILLER_48_265
*1557 FILLER_48_27
*1558 FILLER_48_277
*1559 FILLER_48_289
*1560 FILLER_48_29
*1561 FILLER_48_297
*1562 FILLER_48_3
*1563 FILLER_48_41
*1564 FILLER_48_53
*1565 FILLER_48_65
*1566 FILLER_48_77
*1567 FILLER_48_83
*1568 FILLER_48_85
*1569 FILLER_48_97
*1570 FILLER_49_105
*1571 FILLER_49_111
*1572 FILLER_49_113
*1573 FILLER_49_12
*1574 FILLER_49_125
*1575 FILLER_49_137
*1576 FILLER_49_149
*1577 FILLER_49_161
*1578 FILLER_49_167
*1579 FILLER_49_169
*1580 FILLER_49_181
*1581 FILLER_49_193
*1582 FILLER_49_205
*1583 FILLER_49_217
*1584 FILLER_49_223
*1585 FILLER_49_225
*1586 FILLER_49_237
*1587 FILLER_49_24
*1588 FILLER_49_249
*1589 FILLER_49_261
*1590 FILLER_49_273
*1591 FILLER_49_279
*1592 FILLER_49_281
*1593 FILLER_49_293
*1594 FILLER_49_3
*1595 FILLER_49_36
*1596 FILLER_49_48
*1597 FILLER_49_57
*1598 FILLER_49_69
*1599 FILLER_49_81
*1600 FILLER_49_93
*1601 FILLER_4_109
*1602 FILLER_4_121
*1603 FILLER_4_133
*1604 FILLER_4_139
*1605 FILLER_4_141
*1606 FILLER_4_153
*1607 FILLER_4_165
*1608 FILLER_4_177
*1609 FILLER_4_189
*1610 FILLER_4_195
*1611 FILLER_4_197
*1612 FILLER_4_209
*1613 FILLER_4_22
*1614 FILLER_4_221
*1615 FILLER_4_233
*1616 FILLER_4_245
*1617 FILLER_4_251
*1618 FILLER_4_253
*1619 FILLER_4_265
*1620 FILLER_4_277
*1621 FILLER_4_289
*1622 FILLER_4_29
*1623 FILLER_4_297
*1624 FILLER_4_3
*1625 FILLER_4_53
*1626 FILLER_4_73
*1627 FILLER_4_81
*1628 FILLER_4_85
*1629 FILLER_4_97
*1630 FILLER_50_109
*1631 FILLER_50_121
*1632 FILLER_50_133
*1633 FILLER_50_139
*1634 FILLER_50_141
*1635 FILLER_50_15
*1636 FILLER_50_153
*1637 FILLER_50_165
*1638 FILLER_50_177
*1639 FILLER_50_189
*1640 FILLER_50_195