*SPEF "ieee 1481-1999"
*DESIGN "chase_the_beat"
*DATE "11:11:11 Fri 11 11, 1111"
*VENDOR "OpenRCX"
*PROGRAM "Parallel Extraction"
*VERSION "1.0"
*DESIGN_FLOW "NAME_SCOPE LOCAL" "PIN_CAP NONE"
*DIVIDER /
*DELIMITER :
*BUS_DELIMITER []
*T_UNIT 1 NS
*C_UNIT 1 PF
*R_UNIT 1 OHM
*L_UNIT 1 HENRY

*NAME_MAP
*1 io_in[0]
*2 io_in[1]
*3 io_in[2]
*4 io_in[3]
*5 io_in[4]
*6 io_in[5]
*7 io_in[6]
*8 io_in[7]
*9 io_out[0]
*10 io_out[1]
*11 io_out[2]
*12 io_out[3]
*13 io_out[4]
*14 io_out[5]
*15 io_out[6]
*16 io_out[7]
*19 _000_
*20 _001_
*21 _002_
*22 _003_
*23 _004_
*24 _005_
*25 _006_
*26 _007_
*27 _008_
*28 _009_
*29 _010_
*30 _011_
*31 _012_
*32 _013_
*33 _014_
*34 _015_
*35 _016_
*36 _017_
*37 _018_
*38 _019_
*39 _020_
*40 _021_
*41 _022_
*42 _023_
*43 _024_
*44 _025_
*45 _026_
*46 _027_
*47 _028_
*48 _029_
*49 _030_
*50 _031_
*51 _032_
*52 _033_
*53 _034_
*54 _035_
*55 _036_
*56 _037_
*57 _038_
*58 _039_
*59 _040_
*60 _041_
*61 _042_
*62 _043_
*63 _044_
*64 _045_
*65 _046_
*66 _047_
*67 _048_
*68 _049_
*69 _050_
*70 _051_
*71 _052_
*72 _053_
*73 _054_
*74 _055_
*75 _056_
*76 _057_
*77 _058_
*78 _059_
*79 _060_
*80 _061_
*81 _062_
*82 _063_
*83 _064_
*84 _065_
*85 _066_
*86 _067_
*87 _068_
*88 _069_
*89 _070_
*90 _071_
*91 _072_
*92 _073_
*93 _074_
*94 _075_
*95 _076_
*96 _077_
*97 _078_
*98 _079_
*99 _080_
*100 _081_
*101 _082_
*102 _083_
*103 _084_
*104 _085_
*105 _086_
*106 _087_
*107 _088_
*108 _089_
*109 _090_
*110 _091_
*111 _092_
*112 _093_
*113 _094_
*114 _095_
*115 _096_
*116 _097_
*117 _098_
*118 _099_
*119 _100_
*120 _101_
*121 _102_
*122 _103_
*123 _104_
*124 _105_
*125 _106_
*126 _107_
*127 _108_
*128 _109_
*129 _110_
*130 _111_
*131 _112_
*132 _113_
*133 _114_
*134 _115_
*135 _116_
*136 _117_
*137 _118_
*138 _119_
*139 _120_
*140 _121_
*141 _122_
*142 _123_
*143 _124_
*144 _125_
*145 _126_
*146 _127_
*147 _128_
*148 _129_
*149 _130_
*150 _131_
*151 _132_
*152 _133_
*153 _134_
*154 _135_
*155 _136_
*156 _137_
*157 _138_
*158 _139_
*159 _140_
*160 _141_
*161 _142_
*162 _143_
*163 _144_
*164 _145_
*165 _146_
*166 _147_
*167 _148_
*168 _149_
*169 _150_
*170 _151_
*171 _152_
*172 _153_
*173 _154_
*174 _155_
*175 _156_
*176 _157_
*177 _158_
*178 _159_
*179 _160_
*180 _161_
*181 _162_
*182 _163_
*183 _164_
*184 _165_
*185 _166_
*186 _167_
*187 _168_
*188 _169_
*189 _170_
*190 _171_
*191 _172_
*192 _173_
*193 _174_
*194 _175_
*195 _176_
*196 _177_
*197 _178_
*198 _179_
*199 _180_
*200 _181_
*201 _182_
*202 _183_
*203 _184_
*204 _185_
*205 _186_
*206 _187_
*207 _188_
*208 _189_
*209 _190_
*210 _191_
*211 _192_
*212 _193_
*213 _194_
*214 _195_
*215 _196_
*216 _197_
*217 _198_
*218 _199_
*219 _200_
*220 _201_
*221 _202_
*222 _203_
*223 _204_
*224 _205_
*225 _206_
*226 _207_
*227 _208_
*228 _209_
*229 _210_
*230 _211_
*231 _212_
*232 _213_
*233 _214_
*234 _215_
*235 _216_
*236 _217_
*237 _218_
*238 _219_
*239 _220_
*240 _221_
*241 _222_
*242 _223_
*243 _224_
*244 _225_
*245 _226_
*246 _227_
*247 _228_
*248 _229_
*249 _230_
*250 _231_
*251 _232_
*252 _233_
*253 _234_
*254 _235_
*255 _236_
*256 _237_
*257 _238_
*258 _239_
*259 _240_
*260 _241_
*261 _242_
*262 _243_
*263 _244_
*264 _245_
*265 _246_
*266 _247_
*267 _248_
*268 _249_
*269 _250_
*270 _251_
*271 _252_
*272 _253_
*273 _254_
*274 _255_
*275 _256_
*276 _257_
*277 _258_
*278 _259_
*279 _260_
*280 _261_
*281 _262_
*282 _263_
*283 _264_
*284 _265_
*285 _266_
*286 _267_
*287 _268_
*288 _269_
*289 _270_
*290 _271_
*291 _272_
*292 _273_
*293 _274_
*294 _275_
*295 _276_
*296 _277_
*297 _278_
*298 _279_
*299 _280_
*300 _281_
*301 _282_
*302 _283_
*303 _284_
*304 _285_
*305 _286_
*306 _287_
*307 _288_
*308 _289_
*309 _290_
*310 _291_
*311 _292_
*312 _293_
*313 _294_
*314 _295_
*315 _296_
*316 _297_
*317 _298_
*318 _299_
*319 _300_
*320 _301_
*321 _302_
*322 _303_
*323 _304_
*324 _305_
*325 _306_
*326 _307_
*327 _308_
*328 _309_
*329 _310_
*330 _311_
*331 _312_
*332 _313_
*333 _314_
*334 _315_
*335 _316_
*336 _317_
*337 _318_
*338 _319_
*339 _320_
*340 _321_
*341 _322_
*342 _323_
*343 _324_
*344 _325_
*345 _326_
*346 _327_
*347 _328_
*348 _329_
*349 _330_
*350 _331_
*351 _332_
*352 _333_
*353 _334_
*354 _335_
*355 _336_
*356 _337_
*357 _338_
*358 _339_
*359 _340_
*360 _341_
*361 _342_
*362 _343_
*363 _344_
*364 _345_
*365 _346_
*366 _347_
*367 _348_
*368 _349_
*369 _350_
*370 _351_
*371 _352_
*372 _353_
*373 _354_
*374 _355_
*375 _356_
*376 _357_
*377 _358_
*378 _359_
*379 _360_
*380 _361_
*381 _362_
*382 _363_
*383 _364_
*384 _365_
*385 _366_
*386 _367_
*387 _368_
*388 _369_
*389 _370_
*390 _371_
*391 _372_
*392 _373_
*393 _374_
*394 _375_
*395 _376_
*396 _377_
*397 _378_
*398 _379_
*399 _380_
*400 _381_
*401 _382_
*402 _383_
*403 _384_
*404 _385_
*405 _386_
*406 _387_
*407 _388_
*408 _389_
*409 _390_
*410 _391_
*411 _392_
*412 _393_
*413 _394_
*414 _395_
*415 _396_
*416 _397_
*417 _398_
*418 _399_
*419 _400_
*420 _401_
*421 _402_
*422 _403_
*423 _404_
*424 _405_
*425 _406_
*426 _407_
*427 clknet_0_io_in[0]
*428 clknet_4_0_0_io_in[0]
*429 clknet_4_10_0_io_in[0]
*430 clknet_4_11_0_io_in[0]
*431 clknet_4_12_0_io_in[0]
*432 clknet_4_13_0_io_in[0]
*433 clknet_4_14_0_io_in[0]
*434 clknet_4_15_0_io_in[0]
*435 clknet_4_1_0_io_in[0]
*436 clknet_4_2_0_io_in[0]
*437 clknet_4_3_0_io_in[0]
*438 clknet_4_4_0_io_in[0]
*439 clknet_4_5_0_io_in[0]
*440 clknet_4_6_0_io_in[0]
*441 clknet_4_7_0_io_in[0]
*442 clknet_4_8_0_io_in[0]
*443 clknet_4_9_0_io_in[0]
*444 net1
*445 net2
*446 net3
*447 top\.chase\.ceiling\[0\]
*448 top\.chase\.ceiling\[1\]
*449 top\.chase\.ceiling\[2\]
*450 top\.chase\.ceiling\[3\]
*451 top\.chase\.ceiling\[4\]
*452 top\.chase\.ceiling\[5\]
*453 top\.chase\.ceiling\[6\]
*454 top\.chase\.ceiling\[7\]
*455 top\.chase\.ceiling\[8\]
*456 top\.chase\.ceiling\[9\]
*457 top\.chase\.counter\[0\]
*458 top\.chase\.counter\[1\]
*459 top\.chase\.counter\[2\]
*460 top\.chase\.counter\[3\]
*461 top\.chase\.counter\[4\]
*462 top\.chase\.counter\[5\]
*463 top\.chase\.counter\[6\]
*464 top\.chase\.counter\[7\]
*465 top\.chase\.counter\[8\]
*466 top\.chase\.counter\[9\]
*467 top\.chase\.mode\[0\]
*468 top\.chase\.mode\[1\]
*469 top\.chase\.o\[0\]
*470 top\.chase\.o\[1\]
*471 top\.chase\.o\[2\]
*472 top\.chase\.o\[3\]
*473 top\.chase\.o\[4\]
*474 top\.chase\.o\[5\]
*475 top\.chase\.o\[6\]
*476 top\.chase\.o\[7\]
*477 top\.chase\.prev_tap
*478 top\.noise\.shift_reg\$3\[0\]
*479 top\.noise\.shift_reg\$3\[10\]
*480 top\.noise\.shift_reg\$3\[11\]
*481 top\.noise\.shift_reg\$3\[12\]
*482 top\.noise\.shift_reg\$3\[13\]
*483 top\.noise\.shift_reg\$3\[14\]
*484 top\.noise\.shift_reg\$3\[1\]
*485 top\.noise\.shift_reg\$3\[2\]
*486 top\.noise\.shift_reg\$3\[3\]
*487 top\.noise\.shift_reg\$3\[4\]
*488 top\.noise\.shift_reg\$3\[5\]
*489 top\.noise\.shift_reg\$3\[6\]
*490 top\.noise\.shift_reg\$3\[7\]
*491 top\.noise\.shift_reg\$3\[8\]
*492 top\.noise\.shift_reg\$3\[9\]
*493 top\.noise\.shift_reg\$4\[0\]
*494 top\.noise\.shift_reg\$4\[10\]
*495 top\.noise\.shift_reg\$4\[11\]
*496 top\.noise\.shift_reg\$4\[12\]
*497 top\.noise\.shift_reg\$4\[13\]
*498 top\.noise\.shift_reg\$4\[14\]
*499 top\.noise\.shift_reg\$4\[1\]
*500 top\.noise\.shift_reg\$4\[2\]
*501 top\.noise\.shift_reg\$4\[3\]
*502 top\.noise\.shift_reg\$4\[4\]
*503 top\.noise\.shift_reg\$4\[5\]
*504 top\.noise\.shift_reg\$4\[6\]
*505 top\.noise\.shift_reg\$4\[7\]
*506 top\.noise\.shift_reg\$4\[8\]
*507 top\.noise\.shift_reg\$4\[9\]
*508 top\.noise\.shift_reg\$5\[0\]
*509 top\.noise\.shift_reg\$5\[10\]
*510 top\.noise\.shift_reg\$5\[11\]
*511 top\.noise\.shift_reg\$5\[12\]
*512 top\.noise\.shift_reg\$5\[13\]
*513 top\.noise\.shift_reg\$5\[14\]
*514 top\.noise\.shift_reg\$5\[1\]
*515 top\.noise\.shift_reg\$5\[2\]
*516 top\.noise\.shift_reg\$5\[3\]
*517 top\.noise\.shift_reg\$5\[4\]
*518 top\.noise\.shift_reg\$5\[5\]
*519 top\.noise\.shift_reg\$5\[6\]
*520 top\.noise\.shift_reg\$5\[7\]
*521 top\.noise\.shift_reg\$5\[8\]
*522 top\.noise\.shift_reg\$5\[9\]
*523 top\.noise\.shift_reg\$6\[0\]
*524 top\.noise\.shift_reg\$6\[10\]
*525 top\.noise\.shift_reg\$6\[11\]
*526 top\.noise\.shift_reg\$6\[12\]
*527 top\.noise\.shift_reg\$6\[13\]
*528 top\.noise\.shift_reg\$6\[14\]
*529 top\.noise\.shift_reg\$6\[1\]
*530 top\.noise\.shift_reg\$6\[2\]
*531 top\.noise\.shift_reg\$6\[3\]
*532 top\.noise\.shift_reg\$6\[4\]
*533 top\.noise\.shift_reg\$6\[5\]
*534 top\.noise\.shift_reg\$6\[6\]
*535 top\.noise\.shift_reg\$6\[7\]
*536 top\.noise\.shift_reg\$6\[8\]
*537 top\.noise\.shift_reg\$6\[9\]
*538 top\.noise\.shift_reg\$7\[0\]
*539 top\.noise\.shift_reg\$7\[10\]
*540 top\.noise\.shift_reg\$7\[11\]
*541 top\.noise\.shift_reg\$7\[12\]
*542 top\.noise\.shift_reg\$7\[13\]
*543 top\.noise\.shift_reg\$7\[14\]
*544 top\.noise\.shift_reg\$7\[1\]
*545 top\.noise\.shift_reg\$7\[2\]
*546 top\.noise\.shift_reg\$7\[3\]
*547 top\.noise\.shift_reg\$7\[4\]
*548 top\.noise\.shift_reg\$7\[5\]
*549 top\.noise\.shift_reg\$7\[6\]
*550 top\.noise\.shift_reg\$7\[7\]
*551 top\.noise\.shift_reg\$7\[8\]
*552 top\.noise\.shift_reg\$7\[9\]
*553 top\.noise\.shift_reg\$8\[0\]
*554 top\.noise\.shift_reg\$8\[10\]
*555 top\.noise\.shift_reg\$8\[11\]
*556 top\.noise\.shift_reg\$8\[12\]
*557 top\.noise\.shift_reg\$8\[13\]
*558 top\.noise\.shift_reg\$8\[14\]
*559 top\.noise\.shift_reg\$8\[1\]
*560 top\.noise\.shift_reg\$8\[2\]
*561 top\.noise\.shift_reg\$8\[3\]
*562 top\.noise\.shift_reg\$8\[4\]
*563 top\.noise\.shift_reg\$8\[5\]
*564 top\.noise\.shift_reg\$8\[6\]
*565 top\.noise\.shift_reg\$8\[7\]
*566 top\.noise\.shift_reg\$8\[8\]
*567 top\.noise\.shift_reg\$8\[9\]
*568 top\.noise\.shift_reg\$9\[0\]
*569 top\.noise\.shift_reg\$9\[10\]
*570 top\.noise\.shift_reg\$9\[11\]
*571 top\.noise\.shift_reg\$9\[12\]
*572 top\.noise\.shift_reg\$9\[13\]
*573 top\.noise\.shift_reg\$9\[14\]
*574 top\.noise\.shift_reg\$9\[1\]
*575 top\.noise\.shift_reg\$9\[2\]
*576 top\.noise\.shift_reg\$9\[3\]
*577 top\.noise\.shift_reg\$9\[4\]
*578 top\.noise\.shift_reg\$9\[5\]
*579 top\.noise\.shift_reg\$9\[6\]
*580 top\.noise\.shift_reg\$9\[7\]
*581 top\.noise\.shift_reg\$9\[8\]
*582 top\.noise\.shift_reg\$9\[9\]
*583 top\.noise\.shift_reg\[0\]
*584 top\.noise\.shift_reg\[10\]
*585 top\.noise\.shift_reg\[11\]
*586 top\.noise\.shift_reg\[12\]
*587 top\.noise\.shift_reg\[13\]
*588 top\.noise\.shift_reg\[14\]
*589 top\.noise\.shift_reg\[1\]
*590 top\.noise\.shift_reg\[2\]
*591 top\.noise\.shift_reg\[3\]
*592 top\.noise\.shift_reg\[4\]
*593 top\.noise\.shift_reg\[5\]
*594 top\.noise\.shift_reg\[6\]
*595 top\.noise\.shift_reg\[7\]
*596 top\.noise\.shift_reg\[8\]
*597 top\.noise\.shift_reg\[9\]
*598 FILLER_0_109
*599 FILLER_0_113
*600 FILLER_0_125
*601 FILLER_0_137
*602 FILLER_0_141
*603 FILLER_0_15
*604 FILLER_0_153
*605 FILLER_0_165
*606 FILLER_0_169
*607 FILLER_0_181
*608 FILLER_0_193
*609 FILLER_0_197
*610 FILLER_0_209
*611 FILLER_0_221
*612 FILLER_0_225
*613 FILLER_0_237
*614 FILLER_0_249
*615 FILLER_0_253
*616 FILLER_0_265
*617 FILLER_0_27
*618 FILLER_0_277
*619 FILLER_0_281
*620 FILLER_0_29
*621 FILLER_0_293
*622 FILLER_0_3
*623 FILLER_0_41
*624 FILLER_0_53
*625 FILLER_0_57
*626 FILLER_0_69
*627 FILLER_0_81
*628 FILLER_0_85
*629 FILLER_0_97
*630 FILLER_10_105
*631 FILLER_10_117
*632 FILLER_10_129
*633 FILLER_10_137
*634 FILLER_10_141
*635 FILLER_10_153
*636 FILLER_10_165
*637 FILLER_10_177
*638 FILLER_10_18
*639 FILLER_10_189
*640 FILLER_10_195
*641 FILLER_10_197
*642 FILLER_10_209
*643 FILLER_10_221
*644 FILLER_10_233
*645 FILLER_10_245
*646 FILLER_10_251
*647 FILLER_10_253
*648 FILLER_10_26
*649 FILLER_10_265
*650 FILLER_10_277
*651 FILLER_10_289
*652 FILLER_10_29
*653 FILLER_10_297
*654 FILLER_10_3
*655 FILLER_10_40
*656 FILLER_10_51
*657 FILLER_10_57
*658 FILLER_10_63
*659 FILLER_10_73
*660 FILLER_10_82
*661 FILLER_10_85
*662 FILLER_10_9
*663 FILLER_10_95
*664 FILLER_11_106
*665 FILLER_11_113
*666 FILLER_11_125
*667 FILLER_11_137
*668 FILLER_11_149
*669 FILLER_11_161
*670 FILLER_11_167
*671 FILLER_11_169
*672 FILLER_11_181
*673 FILLER_11_193
*674 FILLER_11_205
*675 FILLER_11_21
*676 FILLER_11_217
*677 FILLER_11_223
*678 FILLER_11_225
*679 FILLER_11_237
*680 FILLER_11_249
*681 FILLER_11_261
*682 FILLER_11_273
*683 FILLER_11_279
*684 FILLER_11_28
*685 FILLER_11_281
*686 FILLER_11_293
*687 FILLER_11_3
*688 FILLER_11_41
*689 FILLER_11_54
*690 FILLER_11_57
*691 FILLER_11_62
*692 FILLER_11_66
*693 FILLER_11_73
*694 FILLER_11_80
*695 FILLER_11_96
*696 FILLER_12_110
*697 FILLER_12_122
*698 FILLER_12_134
*699 FILLER_12_141
*700 FILLER_12_153
*701 FILLER_12_165
*702 FILLER_12_177
*703 FILLER_12_189
*704 FILLER_12_195
*705 FILLER_12_197
*706 FILLER_12_209
*707 FILLER_12_221
*708 FILLER_12_233
*709 FILLER_12_245
*710 FILLER_12_251
*711 FILLER_12_253
*712 FILLER_12_26
*713 FILLER_12_265
*714 FILLER_12_277
*715 FILLER_12_289
*716 FILLER_12_29
*717 FILLER_12_297
*718 FILLER_12_3
*719 FILLER_12_40
*720 FILLER_12_48
*721 FILLER_12_54
*722 FILLER_12_62
*723 FILLER_12_71
*724 FILLER_12_75
*725 FILLER_12_81
*726 FILLER_12_85
*727 FILLER_12_9
*728 FILLER_12_90
*729 FILLER_13_106
*730 FILLER_13_11
*731 FILLER_13_113
*732 FILLER_13_131
*733 FILLER_13_143
*734 FILLER_13_155
*735 FILLER_13_167
*736 FILLER_13_169
*737 FILLER_13_181
*738 FILLER_13_193
*739 FILLER_13_205
*740 FILLER_13_217
*741 FILLER_13_223
*742 FILLER_13_225
*743 FILLER_13_237
*744 FILLER_13_249
*745 FILLER_13_261
*746 FILLER_13_273
*747 FILLER_13_279
*748 FILLER_13_281
*749 FILLER_13_293
*750 FILLER_13_3
*751 FILLER_13_33
*752 FILLER_13_41
*753 FILLER_13_52
*754 FILLER_13_57
*755 FILLER_13_81
*756 FILLER_13_89
*757 FILLER_13_97
*758 FILLER_14_101
*759 FILLER_14_108
*760 FILLER_14_12
*761 FILLER_14_123
*762 FILLER_14_130
*763 FILLER_14_138
*764 FILLER_14_141
*765 FILLER_14_153
*766 FILLER_14_165
*767 FILLER_14_177
*768 FILLER_14_189
*769 FILLER_14_19
*770 FILLER_14_195
*771 FILLER_14_197
*772 FILLER_14_209
*773 FILLER_14_221
*774 FILLER_14_233
*775 FILLER_14_245
*776 FILLER_14_251
*777 FILLER_14_253
*778 FILLER_14_26
*779 FILLER_14_265
*780 FILLER_14_277
*781 FILLER_14_289
*782 FILLER_14_29
*783 FILLER_14_297
*784 FILLER_14_3
*785 FILLER_14_42
*786 FILLER_14_53
*787 FILLER_14_62
*788 FILLER_14_73
*789 FILLER_14_82
*790 FILLER_14_85
*791 FILLER_14_94
*792 FILLER_15_105
*793 FILLER_15_111
*794 FILLER_15_113
*795 FILLER_15_119
*796 FILLER_15_12
*797 FILLER_15_128
*798 FILLER_15_140
*799 FILLER_15_152
*800 FILLER_15_16
*801 FILLER_15_164
*802 FILLER_15_169
*803 FILLER_15_181
*804 FILLER_15_193
*805 FILLER_15_205
*806 FILLER_15_217
*807 FILLER_15_223
*808 FILLER_15_225
*809 FILLER_15_237
*810 FILLER_15_249
*811 FILLER_15_261
*812 FILLER_15_273
*813 FILLER_15_279
*814 FILLER_15_281
*815 FILLER_15_293
*816 FILLER_15_3
*817 FILLER_15_33
*818 FILLER_15_43
*819 FILLER_15_53
*820 FILLER_15_57
*821 FILLER_15_62
*822 FILLER_15_75
*823 FILLER_15_79
*824 FILLER_15_86
*825 FILLER_15_98
*826 FILLER_16_112
*827 FILLER_16_132
*828 FILLER_16_141
*829 FILLER_16_153
*830 FILLER_16_165
*831 FILLER_16_177
*832 FILLER_16_189
*833 FILLER_16_195
*834 FILLER_16_197
*835 FILLER_16_209
*836 FILLER_16_21
*837 FILLER_16_221
*838 FILLER_16_233
*839 FILLER_16_245
*840 FILLER_16_251
*841 FILLER_16_253
*842 FILLER_16_265
*843 FILLER_16_27
*844 FILLER_16_277
*845 FILLER_16_289
*846 FILLER_16_29
*847 FILLER_16_297
*848 FILLER_16_3
*849 FILLER_16_40
*850 FILLER_16_47
*851 FILLER_16_58
*852 FILLER_16_62
*853 FILLER_16_79
*854 FILLER_16_83
*855 FILLER_16_85
*856 FILLER_16_92
*857 FILLER_17_101
*858 FILLER_17_11
*859 FILLER_17_110
*860 FILLER_17_113
*861 FILLER_17_131
*862 FILLER_17_140
*863 FILLER_17_152
*864 FILLER_17_164
*865 FILLER_17_169
*866 FILLER_17_17
*867 FILLER_17_181
*868 FILLER_17_193
*869 FILLER_17_205
*870 FILLER_17_217
*871 FILLER_17_223
*872 FILLER_17_225
*873 FILLER_17_23
*874 FILLER_17_237
*875 FILLER_17_249
*876 FILLER_17_261
*877 FILLER_17_273
*878 FILLER_17_279
*879 FILLER_17_281
*880 FILLER_17_293
*881 FILLER_17_3
*882 FILLER_17_40
*883 FILLER_17_53
*884 FILLER_17_57
*885 FILLER_17_70
*886 FILLER_17_76
*887 FILLER_17_82
*888 FILLER_17_92
*889 FILLER_18_108
*890 FILLER_18_112
*891 FILLER_18_118
*892 FILLER_18_12
*893 FILLER_18_133
*894 FILLER_18_139
*895 FILLER_18_141
*896 FILLER_18_152
*897 FILLER_18_164
*898 FILLER_18_176
*899 FILLER_18_188
*900 FILLER_18_197
*901 FILLER_18_209
*902 FILLER_18_21
*903 FILLER_18_221
*904 FILLER_18_233
*905 FILLER_18_245
*906 FILLER_18_251
*907 FILLER_18_253
*908 FILLER_18_265
*909 FILLER_18_27
*910 FILLER_18_277
*911 FILLER_18_289
*912 FILLER_18_29
*913 FILLER_18_297
*914 FILLER_18_3
*915 FILLER_18_35
*916 FILLER_18_47
*917 FILLER_18_55
*918 FILLER_18_67
*919 FILLER_18_7
*920 FILLER_18_76
*921 FILLER_18_85
*922 FILLER_18_92
*923 FILLER_18_96
*924 FILLER_19_103
*925 FILLER_19_11
*926 FILLER_19_110
*927 FILLER_19_113
*928 FILLER_19_118
*929 FILLER_19_122
*930 FILLER_19_139
*931 FILLER_19_159
*932 FILLER_19_167
*933 FILLER_19_169
*934 FILLER_19_181
*935 FILLER_19_193
*936 FILLER_19_205
*937 FILLER_19_217
*938 FILLER_19_223
*939 FILLER_19_225
*940 FILLER_19_237
*941 FILLER_19_249
*942 FILLER_19_261
*943 FILLER_19_273
*944 FILLER_19_279
*945 FILLER_19_281
*946 FILLER_19_293
*947 FILLER_19_3
*948 FILLER_19_31
*949 FILLER_19_40
*950 FILLER_19_54
*951 FILLER_19_57
*952 FILLER_19_65
*953 FILLER_19_73
*954 FILLER_19_83
*955 FILLER_1_105
*956 FILLER_1_111
*957 FILLER_1_113
*958 FILLER_1_125
*959 FILLER_1_137
*960 FILLER_1_149
*961 FILLER_1_161
*962 FILLER_1_167
*963 FILLER_1_169
*964 FILLER_1_181
*965 FILLER_1_193
*966 FILLER_1_20
*967 FILLER_1_205
*968 FILLER_1_217
*969 FILLER_1_223
*970 FILLER_1_225
*971 FILLER_1_237
*972 FILLER_1_249
*973 FILLER_1_261
*974 FILLER_1_273
*975 FILLER_1_279
*976 FILLER_1_281
*977 FILLER_1_293
*978 FILLER_1_3
*979 FILLER_1_32
*980 FILLER_1_44
*981 FILLER_1_57
*982 FILLER_1_69
*983 FILLER_1_8
*984 FILLER_1_81
*985 FILLER_1_93
*986 FILLER_20_111
*987 FILLER_20_131
*988 FILLER_20_138
*989 FILLER_20_141
*990 FILLER_20_145
*991 FILLER_20_149
*992 FILLER_20_156
*993 FILLER_20_168
*994 FILLER_20_180
*995 FILLER_20_192
*996 FILLER_20_197
*997 FILLER_20_209
*998 FILLER_20_21
*999 FILLER_20_221
*1000 FILLER_20_233
*1001 FILLER_20_245
*1002 FILLER_20_251
*1003 FILLER_20_253
*1004 FILLER_20_265
*1005 FILLER_20_27
*1006 FILLER_20_277
*1007 FILLER_20_289
*1008 FILLER_20_29
*1009 FILLER_20_297
*1010 FILLER_20_3
*1011 FILLER_20_38
*1012 FILLER_20_49
*1013 FILLER_20_61
*1014 FILLER_20_81
*1015 FILLER_20_85
*1016 FILLER_20_90
*1017 FILLER_20_94
*1018 FILLER_21_10
*1019 FILLER_21_100
*1020 FILLER_21_104
*1021 FILLER_21_110
*1022 FILLER_21_113
*1023 FILLER_21_119
*1024 FILLER_21_125
*1025 FILLER_21_149
*1026 FILLER_21_158
*1027 FILLER_21_166
*1028 FILLER_21_169
*1029 FILLER_21_181
*1030 FILLER_21_193
*1031 FILLER_21_205
*1032 FILLER_21_217
*1033 FILLER_21_223
*1034 FILLER_21_225
*1035 FILLER_21_23
*1036 FILLER_21_237
*1037 FILLER_21_249
*1038 FILLER_21_261
*1039 FILLER_21_273
*1040 FILLER_21_279
*1041 FILLER_21_281
*1042 FILLER_21_293
*1043 FILLER_21_3
*1044 FILLER_21_32
*1045 FILLER_21_46
*1046 FILLER_21_50
*1047 FILLER_21_54
*1048 FILLER_21_57
*1049 FILLER_21_66
*1050 FILLER_21_74
*1051 FILLER_21_82
*1052 FILLER_21_93
*1053 FILLER_22_100
*1054 FILLER_22_104
*1055 FILLER_22_124
*1056 FILLER_22_132
*1057 FILLER_22_138
*1058 FILLER_22_141
*1059 FILLER_22_146
*1060 FILLER_22_158
*1061 FILLER_22_16
*1062 FILLER_22_170
*1063 FILLER_22_182
*1064 FILLER_22_194
*1065 FILLER_22_197
*1066 FILLER_22_209
*1067 FILLER_22_221
*1068 FILLER_22_233
*1069 FILLER_22_245
*1070 FILLER_22_251
*1071 FILLER_22_253
*1072 FILLER_22_26
*1073 FILLER_22_265
*1074 FILLER_22_277
*1075 FILLER_22_289
*1076 FILLER_22_29
*1077 FILLER_22_297
*1078 FILLER_22_3
*1079 FILLER_22_37
*1080 FILLER_22_51
*1081 FILLER_22_58
*1082 FILLER_22_68
*1083 FILLER_22_74
*1084 FILLER_22_80
*1085 FILLER_22_85
*1086 FILLER_22_96
*1087 FILLER_23_110
*1088 FILLER_23_113
*1089 FILLER_23_118
*1090 FILLER_23_138
*1091 FILLER_23_146
*1092 FILLER_23_152
*1093 FILLER_23_161
*1094 FILLER_23_167
*1095 FILLER_23_169
*1096 FILLER_23_181
*1097 FILLER_23_193
*1098 FILLER_23_205
*1099 FILLER_23_217
*1100 FILLER_23_223
*1101 FILLER_23_225
*1102 FILLER_23_237
*1103 FILLER_23_249
*1104 FILLER_23_26
*1105 FILLER_23_261
*1106 FILLER_23_273
*1107 FILLER_23_279
*1108 FILLER_23_281
*1109 FILLER_23_293
*1110 FILLER_23_3
*1111 FILLER_23_34
*1112 FILLER_23_42
*1113 FILLER_23_54
*1114 FILLER_23_57
*1115 FILLER_23_70
*1116 FILLER_23_9
*1117 FILLER_23_90
*1118 FILLER_24_111
*1119 FILLER_24_117
*1120 FILLER_24_123
*1121 FILLER_24_132
*1122 FILLER_24_141
*1123 FILLER_24_145
*1124 FILLER_24_162
*1125 FILLER_24_174
*1126 FILLER_24_186
*1127 FILLER_24_194
*1128 FILLER_24_197
*1129 FILLER_24_209
*1130 FILLER_24_21
*1131 FILLER_24_221
*1132 FILLER_24_233
*1133 FILLER_24_245
*1134 FILLER_24_251
*1135 FILLER_24_253
*1136 FILLER_24_265
*1137 FILLER_24_27
*1138 FILLER_24_277
*1139 FILLER_24_289
*1140 FILLER_24_29
*1141 FILLER_24_297
*1142 FILLER_24_3
*1143 FILLER_24_39
*1144 FILLER_24_50
*1145 FILLER_24_54
*1146 FILLER_24_71
*1147 FILLER_24_79
*1148 FILLER_24_83
*1149 FILLER_24_85
*1150 FILLER_24_96
*1151 FILLER_25_100
*1152 FILLER_25_108
*1153 FILLER_25_113
*1154 FILLER_25_120
*1155 FILLER_25_139
*1156 FILLER_25_147
*1157 FILLER_25_15
*1158 FILLER_25_152
*1159 FILLER_25_164
*1160 FILLER_25_169
*1161 FILLER_25_181
*1162 FILLER_25_193
*1163 FILLER_25_205
*1164 FILLER_25_21
*1165 FILLER_25_217
*1166 FILLER_25_223
*1167 FILLER_25_225
*1168 FILLER_25_237
*1169 FILLER_25_249
*1170 FILLER_25_261
*1171 FILLER_25_273
*1172 FILLER_25_279
*1173 FILLER_25_281
*1174 FILLER_25_293
*1175 FILLER_25_3
*1176 FILLER_25_38
*1177 FILLER_25_53
*1178 FILLER_25_57
*1179 FILLER_25_61
*1180 FILLER_25_73
*1181 FILLER_25_8
*1182 FILLER_25_80
*1183 FILLER_26_112
*1184 FILLER_26_132
*1185 FILLER_26_141
*1186 FILLER_26_159
*1187 FILLER_26_17
*1188 FILLER_26_171
*1189 FILLER_26_183
*1190 FILLER_26_195
*1191 FILLER_26_197
*1192 FILLER_26_209
*1193 FILLER_26_21
*1194 FILLER_26_221
*1195 FILLER_26_233
*1196 FILLER_26_245
*1197 FILLER_26_251
*1198 FILLER_26_253
*1199 FILLER_26_26
*1200 FILLER_26_265
*1201 FILLER_26_277
*1202 FILLER_26_289
*1203 FILLER_26_29
*1204 FILLER_26_297
*1205 FILLER_26_3
*1206 FILLER_26_35
*1207 FILLER_26_52
*1208 FILLER_26_60
*1209 FILLER_26_78
*1210 FILLER_26_8
*1211 FILLER_26_85
*1212 FILLER_26_92
*1213 FILLER_27_103
*1214 FILLER_27_110
*1215 FILLER_27_113
*1216 FILLER_27_118
*1217 FILLER_27_125
*1218 FILLER_27_145
*1219 FILLER_27_154
*1220 FILLER_27_166
*1221 FILLER_27_169
*1222 FILLER_27_181
*1223 FILLER_27_193
*1224 FILLER_27_205
*1225 FILLER_27_21
*1226 FILLER_27_217
*1227 FILLER_27_223
*1228 FILLER_27_225
*1229 FILLER_27_237
*1230 FILLER_27_249
*1231 FILLER_27_261
*1232 FILLER_27_273
*1233 FILLER_27_279
*1234 FILLER_27_281
*1235 FILLER_27_29
*1236 FILLER_27_293
*1237 FILLER_27_3
*1238 FILLER_27_39
*1239 FILLER_27_43
*1240 FILLER_27_48
*1241 FILLER_27_57
*1242 FILLER_27_64
*1243 FILLER_27_73
*1244 FILLER_27_79
*1245 FILLER_27_83
*1246 FILLER_28_102
*1247 FILLER_28_122
*1248 FILLER_28_130
*1249 FILLER_28_134
*1250 FILLER_28_141
*1251 FILLER_28_146
*1252 FILLER_28_153
*1253 FILLER_28_165
*1254 FILLER_28_17
*1255 FILLER_28_177
*1256 FILLER_28_189
*1257 FILLER_28_195
*1258 FILLER_28_197
*1259 FILLER_28_209
*1260 FILLER_28_21
*1261 FILLER_28_221
*1262 FILLER_28_233
*1263 FILLER_28_245
*1264 FILLER_28_251
*1265 FILLER_28_253
*1266 FILLER_28_26
*1267 FILLER_28_265
*1268 FILLER_28_277
*1269 FILLER_28_289
*1270 FILLER_28_29
*1271 FILLER_28_297
*1272 FILLER_28_3
*1273 FILLER_28_38
*1274 FILLER_28_48
*1275 FILLER_28_72
*1276 FILLER_28_81
*1277 FILLER_28_85
*1278 FILLER_28_9
*1279 FILLER_28_92
*1280 FILLER_28_96
*1281 FILLER_29_105
*1282 FILLER_29_111
*1283 FILLER_29_113
*1284 FILLER_29_125
*1285 FILLER_29_131
*1286 FILLER_29_137
*1287 FILLER_29_154
*1288 FILLER_29_166
*1289 FILLER_29_169
*1290 FILLER_29_181
*1291 FILLER_29_193
*1292 FILLER_29_205
*1293 FILLER_29_21
*1294 FILLER_29_217
*1295 FILLER_29_223
*1296 FILLER_29_225
*1297 FILLER_29_237
*1298 FILLER_29_249
*1299 FILLER_29_261
*1300 FILLER_29_273
*1301 FILLER_29_279
*1302 FILLER_29_28
*1303 FILLER_29_281
*1304 FILLER_29_293
*1305 FILLER_29_3
*1306 FILLER_29_36
*1307 FILLER_29_54
*1308 FILLER_29_57
*1309 FILLER_29_67
*1310 FILLER_29_71
*1311 FILLER_29_88
*1312 FILLER_29_92
*1313 FILLER_29_96
*1314 FILLER_2_109
*1315 FILLER_2_11
*1316 FILLER_2_121
*1317 FILLER_2_133
*1318 FILLER_2_139
*1319 FILLER_2_141
*1320 FILLER_2_153
*1321 FILLER_2_165
*1322 FILLER_2_177
*1323 FILLER_2_189
*1324 FILLER_2_195
*1325 FILLER_2_197
*1326 FILLER_2_209
*1327 FILLER_2_221
*1328 FILLER_2_23
*1329 FILLER_2_233
*1330 FILLER_2_245
*1331 FILLER_2_251
*1332 FILLER_2_253
*1333 FILLER_2_265
*1334 FILLER_2_27
*1335 FILLER_2_277
*1336 FILLER_2_289
*1337 FILLER_2_29
*1338 FILLER_2_297
*1339 FILLER_2_3
*1340 FILLER_2_41
*1341 FILLER_2_53
*1342 FILLER_2_65
*1343 FILLER_2_7
*1344 FILLER_2_77
*1345 FILLER_2_83
*1346 FILLER_2_85
*1347 FILLER_2_97
*1348 FILLER_30_109
*1349 FILLER_30_117
*1350 FILLER_30_136
*1351 FILLER_30_141
*1352 FILLER_30_148
*1353 FILLER_30_152
*1354 FILLER_30_169
*1355 FILLER_30_181
*1356 FILLER_30_193
*1357 FILLER_30_197
*1358 FILLER_30_209
*1359 FILLER_30_221
*1360 FILLER_30_233
*1361 FILLER_30_245
*1362 FILLER_30_251
*1363 FILLER_30_253
*1364 FILLER_30_26
*1365 FILLER_30_265
*1366 FILLER_30_277
*1367 FILLER_30_289
*1368 FILLER_30_29
*1369 FILLER_30_297
*1370 FILLER_30_3
*1371 FILLER_30_39
*1372 FILLER_30_50
*1373 FILLER_30_62
*1374 FILLER_30_67
*1375 FILLER_30_75
*1376 FILLER_30_82
*1377 FILLER_30_85
*1378 FILLER_30_9
*1379 FILLER_31_108
*1380 FILLER_31_113
*1381 FILLER_31_131
*1382 FILLER_31_135
*1383 FILLER_31_141
*1384 FILLER_31_149
*1385 FILLER_31_153
*1386 FILLER_31_162
*1387 FILLER_31_169
*1388 FILLER_31_181
*1389 FILLER_31_193
*1390 FILLER_31_205
*1391 FILLER_31_217
*1392 FILLER_31_22
*1393 FILLER_31_223
*1394 FILLER_31_225
*1395 FILLER_31_237
*1396 FILLER_31_249
*1397 FILLER_31_261
*1398 FILLER_31_273
*1399 FILLER_31_279
*1400 FILLER_31_281
*1401 FILLER_31_29
*1402 FILLER_31_293
*1403 FILLER_31_3
*1404 FILLER_31_33
*1405 FILLER_31_50
*1406 FILLER_31_57
*1407 FILLER_31_64
*1408 FILLER_31_84
*1409 FILLER_31_9
*1410 FILLER_32_104
*1411 FILLER_32_116
*1412 FILLER_32_123
*1413 FILLER_32_130
*1414 FILLER_32_138
*1415 FILLER_32_141
*1416 FILLER_32_146
*1417 FILLER_32_16
*1418 FILLER_32_170
*1419 FILLER_32_182
*1420 FILLER_32_194
*1421 FILLER_32_197
*1422 FILLER_32_209
*1423 FILLER_32_221
*1424 FILLER_32_23
*1425 FILLER_32_233
*1426 FILLER_32_245
*1427 FILLER_32_251
*1428 FILLER_32_253
*1429 FILLER_32_265
*1430 FILLER_32_27
*1431 FILLER_32_277
*1432 FILLER_32_289
*1433 FILLER_32_29
*1434 FILLER_32_297
*1435 FILLER_32_3
*1436 FILLER_32_33
*1437 FILLER_32_37
*1438 FILLER_32_57
*1439 FILLER_32_77
*1440 FILLER_32_83
*1441 FILLER_32_85
*1442 FILLER_32_90
*1443 FILLER_32_98
*1444 FILLER_33_108
*1445 FILLER_33_113
*1446 FILLER_33_120
*1447 FILLER_33_128
*1448 FILLER_33_136
*1449 FILLER_33_156
*1450 FILLER_33_16
*1451 FILLER_33_165
*1452 FILLER_33_169
*1453 FILLER_33_181
*1454 FILLER_33_193
*1455 FILLER_33_205
*1456 FILLER_33_217
*1457 FILLER_33_223
*1458 FILLER_33_225
*1459 FILLER_33_237
*1460 FILLER_33_24
*1461 FILLER_33_249
*1462 FILLER_33_261
*1463 FILLER_33_273
*1464 FILLER_33_279
*1465 FILLER_33_281
*1466 FILLER_33_29
*1467 FILLER_33_293
*1468 FILLER_33_3
*1469 FILLER_33_35
*1470 FILLER_33_41
*1471 FILLER_33_47
*1472 FILLER_33_53
*1473 FILLER_33_57
*1474 FILLER_33_61
*1475 FILLER_33_65
*1476 FILLER_33_74
*1477 FILLER_33_78
*1478 FILLER_33_95
*1479 FILLER_34_111
*1480 FILLER_34_13
*1481 FILLER_34_131
*1482 FILLER_34_138
*1483 FILLER_34_141
*1484 FILLER_34_148
*1485 FILLER_34_159
*1486 FILLER_34_171
*1487 FILLER_34_18
*1488 FILLER_34_183
*1489 FILLER_34_195
*1490 FILLER_34_197
*1491 FILLER_34_209
*1492 FILLER_34_22
*1493 FILLER_34_221
*1494 FILLER_34_233
*1495 FILLER_34_245
*1496 FILLER_34_251
*1497 FILLER_34_253
*1498 FILLER_34_26
*1499 FILLER_34_265
*1500 FILLER_34_277
*1501 FILLER_34_289
*1502 FILLER_34_29
*1503 FILLER_34_297
*1504 FILLER_34_3
*1505 FILLER_34_47
*1506 FILLER_34_54
*1507 FILLER_34_61
*1508 FILLER_34_65
*1509 FILLER_34_69
*1510 FILLER_34_80
*1511 FILLER_34_85
*1512 FILLER_34_9
*1513 FILLER_34_90
*1514 FILLER_34_94
*1515 FILLER_35_108
*1516 FILLER_35_113
*1517 FILLER_35_117
*1518 FILLER_35_121
*1519 FILLER_35_127
*1520 FILLER_35_144
*1521 FILLER_35_152
*1522 FILLER_35_158
*1523 FILLER_35_166
*1524 FILLER_35_169
*1525 FILLER_35_181
*1526 FILLER_35_193
*1527 FILLER_35_205
*1528 FILLER_35_217
*1529 FILLER_35_22
*1530 FILLER_35_223
*1531 FILLER_35_225
*1532 FILLER_35_237
*1533 FILLER_35_249
*1534 FILLER_35_261
*1535 FILLER_35_273
*1536 FILLER_35_279
*1537 FILLER_35_281
*1538 FILLER_35_293
*1539 FILLER_35_3
*1540 FILLER_35_33
*1541 FILLER_35_37
*1542 FILLER_35_54
*1543 FILLER_35_57
*1544 FILLER_35_64
*1545 FILLER_35_88
*1546 FILLER_36_107
*1547 FILLER_36_115
*1548 FILLER_36_121
*1549 FILLER_36_128
*1550 FILLER_36_13
*1551 FILLER_36_134
*1552 FILLER_36_138
*1553 FILLER_36_141
*1554 FILLER_36_148
*1555 FILLER_36_17
*1556 FILLER_36_170
*1557 FILLER_36_182
*1558 FILLER_36_194
*1559 FILLER_36_197
*1560 FILLER_36_209
*1561 FILLER_36_221
*1562 FILLER_36_233
*1563 FILLER_36_245
*1564 FILLER_36_251
*1565 FILLER_36_253
*1566 FILLER_36_26
*1567 FILLER_36_265
*1568 FILLER_36_277
*1569 FILLER_36_289
*1570 FILLER_36_29
*1571 FILLER_36_297
*1572 FILLER_36_3
*1573 FILLER_36_47
*1574 FILLER_36_55
*1575 FILLER_36_60
*1576 FILLER_36_80
*1577 FILLER_36_85
*1578 FILLER_36_9
*1579 FILLER_36_90
*1580 FILLER_36_99
*1581 FILLER_37_106
*1582 FILLER_37_113
*1583 FILLER_37_135
*1584 FILLER_37_155
*1585 FILLER_37_16
*1586 FILLER_37_162
*1587 FILLER_37_169
*1588 FILLER_37_176
*1589 FILLER_37_183
*1590 FILLER_37_195
*1591 FILLER_37_207
*1592 FILLER_37_219
*1593 FILLER_37_223
*1594 FILLER_37_225
*1595 FILLER_37_237
*1596 FILLER_37_24
*1597 FILLER_37_249
*1598 FILLER_37_261
*1599 FILLER_37_273
*1600 FILLER_37_279
*1601 FILLER_37_281
*1602 FILLER_37_293
*1603 FILLER_37_3
*1604 FILLER_37_34
*1605 FILLER_37_54
*1606 FILLER_37_57
*1607 FILLER_37_64
*1608 FILLER_37_72
*1609 FILLER_37_83
*1610 FILLER_37_89
*1611 FILLER_38_111
*1612 FILLER_38_131
*1613 FILLER_38_138
*1614 FILLER_38_141
*1615 FILLER_38_147
*1616 FILLER_38_153
*1617 FILLER_38_173
*1618 FILLER_38_185