*SPEF "ieee 1481-1999"
*DESIGN "chrisruk_matrix"
*DATE "11:11:11 Fri 11 11, 1111"
*VENDOR "OpenRCX"
*PROGRAM "Parallel Extraction"
*VERSION "1.0"
*DESIGN_FLOW "NAME_SCOPE LOCAL" "PIN_CAP NONE"
*DIVIDER /
*DELIMITER :
*BUS_DELIMITER []
*T_UNIT 1 NS
*C_UNIT 1 PF
*R_UNIT 1 OHM
*L_UNIT 1 HENRY

*NAME_MAP
*1 io_in[0]
*2 io_in[1]
*3 io_in[2]
*4 io_in[3]
*5 io_in[4]
*6 io_in[5]
*7 io_in[6]
*8 io_in[7]
*9 io_out[0]
*10 io_out[1]
*11 net3
*12 net4
*13 net5
*14 net6
*15 net7
*16 net8
*19 _000_
*20 _001_
*21 _002_
*22 _003_
*23 _004_
*24 _005_
*25 _006_
*26 _007_
*27 _008_
*28 _009_
*29 _010_
*30 _011_
*31 _012_
*32 _013_
*33 _014_
*34 _015_
*35 _016_
*36 _017_
*37 _018_
*38 _019_
*39 _020_
*40 _021_
*41 _022_
*42 _023_
*43 _024_
*44 _025_
*45 _026_
*46 _027_
*47 _028_
*48 _029_
*49 _030_
*50 _031_
*51 _032_
*52 _033_
*53 _034_
*54 _035_
*55 _036_
*56 _037_
*57 _038_
*58 _039_
*59 _040_
*60 _041_
*61 _042_
*62 _043_
*63 _044_
*64 _045_
*65 _046_
*66 _047_
*67 _048_
*68 _049_
*69 _050_
*70 _051_
*71 _052_
*72 _053_
*73 _054_
*74 _055_
*75 _056_
*76 _057_
*77 _058_
*78 _059_
*79 _060_
*80 _061_
*81 _062_
*82 _063_
*83 _064_
*84 _065_
*85 _066_
*86 _067_
*87 _068_
*88 _069_
*89 _070_
*90 _071_
*91 _072_
*92 _073_
*93 _074_
*94 _075_
*95 _076_
*96 _077_
*97 _078_
*98 _079_
*99 _080_
*100 _081_
*101 _082_
*102 _083_
*103 _084_
*104 _085_
*105 _086_
*106 _087_
*107 _088_
*108 _089_
*109 _090_
*110 _091_
*111 _092_
*112 _093_
*113 _094_
*114 _095_
*115 _096_
*116 _097_
*117 _098_
*118 _099_
*119 _100_
*120 _101_
*121 _102_
*122 _103_
*123 _104_
*124 _105_
*125 _106_
*126 _107_
*127 _108_
*128 _109_
*129 _110_
*130 _111_
*131 _112_
*132 _113_
*133 _114_
*134 _115_
*135 _116_
*136 _117_
*137 _118_
*138 _119_
*139 _120_
*140 _121_
*141 _122_
*142 _123_
*143 _124_
*144 _125_
*145 _126_
*146 _127_
*147 _128_
*148 _129_
*149 _130_
*150 _131_
*151 _132_
*152 _133_
*153 _134_
*154 _135_
*155 _136_
*156 _137_
*157 _138_
*158 _139_
*159 _140_
*160 _141_
*161 _142_
*162 _143_
*163 _144_
*164 _145_
*165 _146_
*166 _147_
*167 _148_
*168 _149_
*169 _150_
*170 _151_
*171 _152_
*172 _153_
*173 _154_
*174 _155_
*175 _156_
*176 _157_
*177 _158_
*178 _159_
*179 _160_
*180 _161_
*181 _162_
*182 _163_
*183 _164_
*184 _165_
*185 _166_
*186 _167_
*187 _168_
*188 _169_
*189 _170_
*190 _171_
*191 _172_
*192 _173_
*193 _174_
*194 _175_
*195 _176_
*196 _177_
*197 _178_
*198 _179_
*199 _180_
*200 _181_
*201 _182_
*202 _183_
*203 _184_
*204 _185_
*205 _186_
*206 _187_
*207 _188_
*208 _189_
*209 _190_
*210 _191_
*211 _192_
*212 _193_
*213 _194_
*214 _195_
*215 _196_
*216 _197_
*217 _198_
*218 _199_
*219 _200_
*220 _201_
*221 _202_
*222 _203_
*223 _204_
*224 _205_
*225 _206_
*226 _207_
*227 _208_
*228 _209_
*229 _210_
*230 _211_
*231 _212_
*232 _213_
*233 _214_
*234 _215_
*235 _216_
*236 _217_
*237 _218_
*238 _219_
*239 _220_
*240 _221_
*241 _222_
*242 _223_
*243 _224_
*244 _225_
*245 _226_
*246 _227_
*247 _228_
*248 _229_
*249 _230_
*250 _231_
*251 _232_
*252 _233_
*253 _234_
*254 _235_
*255 _236_
*256 _237_
*257 _238_
*258 _239_
*259 _240_
*260 _241_
*261 _242_
*262 _243_
*263 _244_
*264 _245_
*265 _246_
*266 _247_
*267 _248_
*268 _249_
*269 _250_
*270 _251_
*271 _252_
*272 _253_
*273 _254_
*274 _255_
*275 _256_
*276 _257_
*277 _258_
*278 _259_
*279 _260_
*280 _261_
*281 _262_
*282 _263_
*283 _264_
*284 _265_
*285 _266_
*286 _267_
*287 _268_
*288 _269_
*289 _270_
*290 _271_
*291 _272_
*292 _273_
*293 _274_
*294 _275_
*295 _276_
*296 _277_
*297 _278_
*298 _279_
*299 _280_
*300 _281_
*301 _282_
*302 _283_
*303 _284_
*304 _285_
*305 _286_
*306 _287_
*307 _288_
*308 _289_
*309 _290_
*310 _291_
*311 _292_
*312 _293_
*313 _294_
*314 _295_
*315 _296_
*316 _297_
*317 _298_
*318 _299_
*319 _300_
*320 _301_
*321 _302_
*322 _303_
*323 _304_
*324 _305_
*325 _306_
*326 _307_
*327 _308_
*328 _309_
*329 _310_
*330 _311_
*331 _312_
*332 _313_
*333 _314_
*334 _315_
*335 _316_
*336 _317_
*337 _318_
*338 _319_
*339 clknet_0_io_in[0]
*340 clknet_3_0__leaf_io_in[0]
*341 clknet_3_1__leaf_io_in[0]
*342 clknet_3_2__leaf_io_in[0]
*343 clknet_3_3__leaf_io_in[0]
*344 clknet_3_4__leaf_io_in[0]
*345 clknet_3_5__leaf_io_in[0]
*346 clknet_3_6__leaf_io_in[0]
*347 clknet_3_7__leaf_io_in[0]
*348 clock_1
*349 counter1\[0\]
*350 counter1\[10\]
*351 counter1\[11\]
*352 counter1\[1\]
*353 counter1\[2\]
*354 counter1\[3\]
*355 counter1\[4\]
*356 counter1\[5\]
*357 counter1\[6\]
*358 counter1\[7\]
*359 counter1\[8\]
*360 counter1\[9\]
*361 digit1_cache
*362 digit2_cache
*363 display\[16\]
*364 display\[17\]
*365 display\[18\]
*366 display\[19\]
*367 display\[20\]
*368 display\[21\]
*369 display\[22\]
*370 display\[23\]
*371 display\[24\]
*372 display\[25\]
*373 display\[26\]
*374 display\[27\]
*375 display\[28\]
*376 display\[29\]
*377 display\[30\]
*378 display\[31\]
*379 display\[32\]
*380 display\[33\]
*381 display\[34\]
*382 display\[35\]
*383 display\[36\]
*384 display\[37\]
*385 display\[38\]
*386 display\[39\]
*387 display\[42\]
*388 display\[43\]
*389 display\[44\]
*390 display\[45\]
*391 display\[46\]
*392 display\[47\]
*393 display\[48\]
*394 display\[49\]
*395 display\[50\]
*396 display\[51\]
*397 display\[52\]
*398 display\[53\]
*399 display\[54\]
*400 display\[55\]
*401 first
*402 idx\[0\]
*403 idx\[1\]
*404 idx\[2\]
*405 idx\[3\]
*406 idx\[4\]
*407 idx\[5\]
*408 net1
*409 net2
*410 pidx\[0\]
*411 pidx\[1\]
*412 pidx\[2\]
*413 pidx\[3\]
*414 pidx\[4\]
*415 pidx\[5\]
*416 shift\[0\]
*417 shift\[1\]
*418 shift\[2\]
*419 strip_1
*420 ANTENNA_1
*421 ANTENNA_2
*422 ANTENNA_3
*423 ANTENNA_4
*424 ANTENNA_5
*425 ANTENNA_6
*426 FILLER_0_104
*427 FILLER_0_113
*428 FILLER_0_131
*429 FILLER_0_138
*430 FILLER_0_141
*431 FILLER_0_159
*432 FILLER_0_166
*433 FILLER_0_169
*434 FILLER_0_175
*435 FILLER_0_192
*436 FILLER_0_197
*437 FILLER_0_209
*438 FILLER_0_21
*439 FILLER_0_221
*440 FILLER_0_225
*441 FILLER_0_237
*442 FILLER_0_249
*443 FILLER_0_25
*444 FILLER_0_253
*445 FILLER_0_265
*446 FILLER_0_277
*447 FILLER_0_281
*448 FILLER_0_29
*449 FILLER_0_293
*450 FILLER_0_3
*451 FILLER_0_48
*452 FILLER_0_57
*453 FILLER_0_75
*454 FILLER_0_83
*455 FILLER_0_85
*456 FILLER_10_103
*457 FILLER_10_114
*458 FILLER_10_126
*459 FILLER_10_134
*460 FILLER_10_141
*461 FILLER_10_147
*462 FILLER_10_154
*463 FILLER_10_162
*464 FILLER_10_169
*465 FILLER_10_177
*466 FILLER_10_185
*467 FILLER_10_193
*468 FILLER_10_197
*469 FILLER_10_204
*470 FILLER_10_216
*471 FILLER_10_228
*472 FILLER_10_23
*473 FILLER_10_240
*474 FILLER_10_253
*475 FILLER_10_264
*476 FILLER_10_27
*477 FILLER_10_276
*478 FILLER_10_288
*479 FILLER_10_29
*480 FILLER_10_296
*481 FILLER_10_3
*482 FILLER_10_41
*483 FILLER_10_47
*484 FILLER_10_68
*485 FILLER_10_76
*486 FILLER_10_82
*487 FILLER_10_85
*488 FILLER_11_100
*489 FILLER_11_106
*490 FILLER_11_113
*491 FILLER_11_119
*492 FILLER_11_126
*493 FILLER_11_133
*494 FILLER_11_146
*495 FILLER_11_154
*496 FILLER_11_165
*497 FILLER_11_169
*498 FILLER_11_180
*499 FILLER_11_188
*500 FILLER_11_196
*501 FILLER_11_209
*502 FILLER_11_215
*503 FILLER_11_222
*504 FILLER_11_225
*505 FILLER_11_236
*506 FILLER_11_248
*507 FILLER_11_260
*508 FILLER_11_27
*509 FILLER_11_272
*510 FILLER_11_281
*511 FILLER_11_293
*512 FILLER_11_3
*513 FILLER_11_48
*514 FILLER_11_57
*515 FILLER_11_75
*516 FILLER_11_79
*517 FILLER_11_96
*518 FILLER_12_103
*519 FILLER_12_109
*520 FILLER_12_118
*521 FILLER_12_126
*522 FILLER_12_136
*523 FILLER_12_141
*524 FILLER_12_153
*525 FILLER_12_165
*526 FILLER_12_173
*527 FILLER_12_180
*528 FILLER_12_189
*529 FILLER_12_195
*530 FILLER_12_197
*531 FILLER_12_209
*532 FILLER_12_221
*533 FILLER_12_225
*534 FILLER_12_231
*535 FILLER_12_243
*536 FILLER_12_251
*537 FILLER_12_253
*538 FILLER_12_26
*539 FILLER_12_265
*540 FILLER_12_277
*541 FILLER_12_289
*542 FILLER_12_29
*543 FILLER_12_297
*544 FILLER_12_3
*545 FILLER_12_41
*546 FILLER_12_45
*547 FILLER_12_62
*548 FILLER_12_82
*549 FILLER_12_85
*550 FILLER_12_9
*551 FILLER_13_106
*552 FILLER_13_110
*553 FILLER_13_113
*554 FILLER_13_124
*555 FILLER_13_137
*556 FILLER_13_150
*557 FILLER_13_160
*558 FILLER_13_169
*559 FILLER_13_181
*560 FILLER_13_193
*561 FILLER_13_205
*562 FILLER_13_217
*563 FILLER_13_223
*564 FILLER_13_225
*565 FILLER_13_233
*566 FILLER_13_245
*567 FILLER_13_257
*568 FILLER_13_26
*569 FILLER_13_269
*570 FILLER_13_277
*571 FILLER_13_281
*572 FILLER_13_293
*573 FILLER_13_3
*574 FILLER_13_34
*575 FILLER_13_52
*576 FILLER_13_57
*577 FILLER_13_61
*578 FILLER_13_78
*579 FILLER_13_98
*580 FILLER_14_109
*581 FILLER_14_121
*582 FILLER_14_130
*583 FILLER_14_137
*584 FILLER_14_141
*585 FILLER_14_149
*586 FILLER_14_157
*587 FILLER_14_168
*588 FILLER_14_176
*589 FILLER_14_185
*590 FILLER_14_193
*591 FILLER_14_197
*592 FILLER_14_209
*593 FILLER_14_22
*594 FILLER_14_221
*595 FILLER_14_233
*596 FILLER_14_245
*597 FILLER_14_251
*598 FILLER_14_253
*599 FILLER_14_265
*600 FILLER_14_277
*601 FILLER_14_289
*602 FILLER_14_29
*603 FILLER_14_297
*604 FILLER_14_3
*605 FILLER_14_41
*606 FILLER_14_45
*607 FILLER_14_62
*608 FILLER_14_82
*609 FILLER_14_85
*610 FILLER_14_97
*611 FILLER_15_104
*612 FILLER_15_113
*613 FILLER_15_117
*614 FILLER_15_123
*615 FILLER_15_135
*616 FILLER_15_144
*617 FILLER_15_148
*618 FILLER_15_15
*619 FILLER_15_152
*620 FILLER_15_160
*621 FILLER_15_169
*622 FILLER_15_181
*623 FILLER_15_193
*624 FILLER_15_205
*625 FILLER_15_217
*626 FILLER_15_223
*627 FILLER_15_225
*628 FILLER_15_237
*629 FILLER_15_249
*630 FILLER_15_261
*631 FILLER_15_273
*632 FILLER_15_279
*633 FILLER_15_281
*634 FILLER_15_293
*635 FILLER_15_3
*636 FILLER_15_33
*637 FILLER_15_53
*638 FILLER_15_57
*639 FILLER_15_69
*640 FILLER_15_92
*641 FILLER_16_103
*642 FILLER_16_115
*643 FILLER_16_127
*644 FILLER_16_138
*645 FILLER_16_141
*646 FILLER_16_148
*647 FILLER_16_156
*648 FILLER_16_165
*649 FILLER_16_177
*650 FILLER_16_185
*651 FILLER_16_194
*652 FILLER_16_197
*653 FILLER_16_209
*654 FILLER_16_21
*655 FILLER_16_221
*656 FILLER_16_233
*657 FILLER_16_245
*658 FILLER_16_251
*659 FILLER_16_253
*660 FILLER_16_265
*661 FILLER_16_27
*662 FILLER_16_277
*663 FILLER_16_289
*664 FILLER_16_29
*665 FILLER_16_297
*666 FILLER_16_3
*667 FILLER_16_41
*668 FILLER_16_65
*669 FILLER_16_77
*670 FILLER_16_83
*671 FILLER_16_85
*672 FILLER_17_109
*673 FILLER_17_113
*674 FILLER_17_125
*675 FILLER_17_137
*676 FILLER_17_144
*677 FILLER_17_15
*678 FILLER_17_152
*679 FILLER_17_159
*680 FILLER_17_167
*681 FILLER_17_169
*682 FILLER_17_175
*683 FILLER_17_182
*684 FILLER_17_194
*685 FILLER_17_202
*686 FILLER_17_214
*687 FILLER_17_222
*688 FILLER_17_225
*689 FILLER_17_237
*690 FILLER_17_241
*691 FILLER_17_253
*692 FILLER_17_265
*693 FILLER_17_277
*694 FILLER_17_281
*695 FILLER_17_293
*696 FILLER_17_3
*697 FILLER_17_36
*698 FILLER_17_48
*699 FILLER_17_57
*700 FILLER_17_76
*701 FILLER_17_97
*702 FILLER_18_103
*703 FILLER_18_111
*704 FILLER_18_119
*705 FILLER_18_127
*706 FILLER_18_138
*707 FILLER_18_141
*708 FILLER_18_149
*709 FILLER_18_156
*710 FILLER_18_168
*711 FILLER_18_180
*712 FILLER_18_192
*713 FILLER_18_197
*714 FILLER_18_212
*715 FILLER_18_22
*716 FILLER_18_224
*717 FILLER_18_232
*718 FILLER_18_244
*719 FILLER_18_253
*720 FILLER_18_26
*721 FILLER_18_265
*722 FILLER_18_277
*723 FILLER_18_289
*724 FILLER_18_29
*725 FILLER_18_297
*726 FILLER_18_3
*727 FILLER_18_54
*728 FILLER_18_82
*729 FILLER_18_85
*730 FILLER_19_110
*731 FILLER_19_113
*732 FILLER_19_125
*733 FILLER_19_134
*734 FILLER_19_148
*735 FILLER_19_159
*736 FILLER_19_167
*737 FILLER_19_169
*738 FILLER_19_178
*739 FILLER_19_199
*740 FILLER_19_21
*741 FILLER_19_212
*742 FILLER_19_225
*743 FILLER_19_237
*744 FILLER_19_249
*745 FILLER_19_261
*746 FILLER_19_273
*747 FILLER_19_279
*748 FILLER_19_281
*749 FILLER_19_293
*750 FILLER_19_3
*751 FILLER_19_43
*752 FILLER_19_55
*753 FILLER_19_57
*754 FILLER_19_75
*755 FILLER_19_81
*756 FILLER_19_98
*757 FILLER_1_100
*758 FILLER_1_110
*759 FILLER_1_113
*760 FILLER_1_131
*761 FILLER_1_139
*762 FILLER_1_147
*763 FILLER_1_15
*764 FILLER_1_157
*765 FILLER_1_165
*766 FILLER_1_169
*767 FILLER_1_174
*768 FILLER_1_182
*769 FILLER_1_192
*770 FILLER_1_204
*771 FILLER_1_216
*772 FILLER_1_225
*773 FILLER_1_232
*774 FILLER_1_244
*775 FILLER_1_256
*776 FILLER_1_268
*777 FILLER_1_281
*778 FILLER_1_293
*779 FILLER_1_3
*780 FILLER_1_36
*781 FILLER_1_48
*782 FILLER_1_57
*783 FILLER_1_69
*784 FILLER_1_93
*785 FILLER_20_108
*786 FILLER_20_116
*787 FILLER_20_120
*788 FILLER_20_127
*789 FILLER_20_139
*790 FILLER_20_141
*791 FILLER_20_153
*792 FILLER_20_163
*793 FILLER_20_173
*794 FILLER_20_190
*795 FILLER_20_197
*796 FILLER_20_209
*797 FILLER_20_21
*798 FILLER_20_221
*799 FILLER_20_229
*800 FILLER_20_236
*801 FILLER_20_248
*802 FILLER_20_253
*803 FILLER_20_265
*804 FILLER_20_27
*805 FILLER_20_277
*806 FILLER_20_289
*807 FILLER_20_29
*808 FILLER_20_297
*809 FILLER_20_3
*810 FILLER_20_41
*811 FILLER_20_45
*812 FILLER_20_62
*813 FILLER_20_74
*814 FILLER_20_82
*815 FILLER_20_85
*816 FILLER_20_97
*817 FILLER_21_105
*818 FILLER_21_110
*819 FILLER_21_113
*820 FILLER_21_120
*821 FILLER_21_127
*822 FILLER_21_135
*823 FILLER_21_144
*824 FILLER_21_15
*825 FILLER_21_156
*826 FILLER_21_169
*827 FILLER_21_175
*828 FILLER_21_181
*829 FILLER_21_187
*830 FILLER_21_199
*831 FILLER_21_211
*832 FILLER_21_223
*833 FILLER_21_225
*834 FILLER_21_237
*835 FILLER_21_249
*836 FILLER_21_258
*837 FILLER_21_27
*838 FILLER_21_270
*839 FILLER_21_278
*840 FILLER_21_281
*841 FILLER_21_293
*842 FILLER_21_3
*843 FILLER_21_39
*844 FILLER_21_51
*845 FILLER_21_55
*846 FILLER_21_57
*847 FILLER_21_69
*848 FILLER_21_81
*849 FILLER_21_93
*850 FILLER_22_101
*851 FILLER_22_108
*852 FILLER_22_116
*853 FILLER_22_125
*854 FILLER_22_13
*855 FILLER_22_133
*856 FILLER_22_139
*857 FILLER_22_141
*858 FILLER_22_149
*859 FILLER_22_171
*860 FILLER_22_183
*861 FILLER_22_195
*862 FILLER_22_197
*863 FILLER_22_209
*864 FILLER_22_221
*865 FILLER_22_233
*866 FILLER_22_245
*867 FILLER_22_25
*868 FILLER_22_251
*869 FILLER_22_253
*870 FILLER_22_265
*871 FILLER_22_277
*872 FILLER_22_289
*873 FILLER_22_29
*874 FILLER_22_297
*875 FILLER_22_3
*876 FILLER_22_41
*877 FILLER_22_53
*878 FILLER_22_65
*879 FILLER_22_7
*880 FILLER_22_72
*881 FILLER_22_79
*882 FILLER_22_83
*883 FILLER_22_85
*884 FILLER_22_97
*885 FILLER_23_100
*886 FILLER_23_110
*887 FILLER_23_113
*888 FILLER_23_117
*889 FILLER_23_124
*890 FILLER_23_13
*891 FILLER_23_136
*892 FILLER_23_148
*893 FILLER_23_160
*894 FILLER_23_169
*895 FILLER_23_181
*896 FILLER_23_193
*897 FILLER_23_203
*898 FILLER_23_211
*899 FILLER_23_222
*900 FILLER_23_225
*901 FILLER_23_237
*902 FILLER_23_249
*903 FILLER_23_25
*904 FILLER_23_261
*905 FILLER_23_273
*906 FILLER_23_279
*907 FILLER_23_281
*908 FILLER_23_293
*909 FILLER_23_3
*910 FILLER_23_37
*911 FILLER_23_49
*912 FILLER_23_55
*913 FILLER_23_57
*914 FILLER_23_66
*915 FILLER_23_76
*916 FILLER_23_88
*917 FILLER_24_106
*918 FILLER_24_116
*919 FILLER_24_128
*920 FILLER_24_141
*921 FILLER_24_15
*922 FILLER_24_151
*923 FILLER_24_163
*924 FILLER_24_167
*925 FILLER_24_179
*926 FILLER_24_191
*927 FILLER_24_195
*928 FILLER_24_197
*929 FILLER_24_209
*930 FILLER_24_221
*931 FILLER_24_233
*932 FILLER_24_245
*933 FILLER_24_251
*934 FILLER_24_253
*935 FILLER_24_265
*936 FILLER_24_27
*937 FILLER_24_277
*938 FILLER_24_289
*939 FILLER_24_29
*940 FILLER_24_297
*941 FILLER_24_3
*942 FILLER_24_41
*943 FILLER_24_53
*944 FILLER_24_65
*945 FILLER_24_69
*946 FILLER_24_81
*947 FILLER_24_85
*948 FILLER_24_97
*949 FILLER_25_101
*950 FILLER_25_110
*951 FILLER_25_113
*952 FILLER_25_127
*953 FILLER_25_139
*954 FILLER_25_151
*955 FILLER_25_16
*956 FILLER_25_163
*957 FILLER_25_167
*958 FILLER_25_169
*959 FILLER_25_181
*960 FILLER_25_193
*961 FILLER_25_205
*962 FILLER_25_217
*963 FILLER_25_223
*964 FILLER_25_225
*965 FILLER_25_233
*966 FILLER_25_25
*967 FILLER_25_257
*968 FILLER_25_269
*969 FILLER_25_277
*970 FILLER_25_281
*971 FILLER_25_293
*972 FILLER_25_3
*973 FILLER_25_37
*974 FILLER_25_49
*975 FILLER_25_55
*976 FILLER_25_57
*977 FILLER_25_69
*978 FILLER_25_77
*979 FILLER_25_8
*980 FILLER_25_85
*981 FILLER_25_93
*982 FILLER_26_105
*983 FILLER_26_111
*984 FILLER_26_121
*985 FILLER_26_128
*986 FILLER_26_14
*987 FILLER_26_141
*988 FILLER_26_149
*989 FILLER_26_159
*990 FILLER_26_171
*991 FILLER_26_183
*992 FILLER_26_195
*993 FILLER_26_197
*994 FILLER_26_209
*995 FILLER_26_217
*996 FILLER_26_229
*997 FILLER_26_241
*998 FILLER_26_249
*999 FILLER_26_253
*1000 FILLER_26_26
*1001 FILLER_26_265
*1002 FILLER_26_277
*1003 FILLER_26_289
*1004 FILLER_26_29
*1005 FILLER_26_297
*1006 FILLER_26_3
*1007 FILLER_26_38
*1008 FILLER_26_45
*1009 FILLER_26_57
*1010 FILLER_26_65
*1011 FILLER_26_71
*1012 FILLER_26_80
*1013 FILLER_26_85
*1014 FILLER_26_89
*1015 FILLER_26_97
*1016 FILLER_27_103
*1017 FILLER_27_110
*1018 FILLER_27_113
*1019 FILLER_27_125
*1020 FILLER_27_140
*1021 FILLER_27_152
*1022 FILLER_27_164
*1023 FILLER_27_169
*1024 FILLER_27_181
*1025 FILLER_27_193
*1026 FILLER_27_20
*1027 FILLER_27_205
*1028 FILLER_27_217
*1029 FILLER_27_223
*1030 FILLER_27_225
*1031 FILLER_27_237
*1032 FILLER_27_249
*1033 FILLER_27_261
*1034 FILLER_27_273
*1035 FILLER_27_279
*1036 FILLER_27_281
*1037 FILLER_27_29
*1038 FILLER_27_293
*1039 FILLER_27_3
*1040 FILLER_27_35
*1041 FILLER_27_42
*1042 FILLER_27_54
*1043 FILLER_27_57
*1044 FILLER_27_65
*1045 FILLER_27_77
*1046 FILLER_27_82
*1047 FILLER_27_9
*1048 FILLER_27_90
*1049 FILLER_27_96
*1050 FILLER_28_105
*1051 FILLER_28_117
*1052 FILLER_28_125
*1053 FILLER_28_138
*1054 FILLER_28_141
*1055 FILLER_28_15
*1056 FILLER_28_153
*1057 FILLER_28_165
*1058 FILLER_28_177
*1059 FILLER_28_184
*1060 FILLER_28_197
*1061 FILLER_28_207
*1062 FILLER_28_219
*1063 FILLER_28_231
*1064 FILLER_28_243
*1065 FILLER_28_251
*1066 FILLER_28_253
*1067 FILLER_28_265
*1068 FILLER_28_27
*1069 FILLER_28_277
*1070 FILLER_28_289
*1071 FILLER_28_29
*1072 FILLER_28_297
*1073 FILLER_28_3
*1074 FILLER_28_35
*1075 FILLER_28_47
*1076 FILLER_28_54
*1077 FILLER_28_73
*1078 FILLER_28_82
*1079 FILLER_28_85
*1080 FILLER_28_89
*1081 FILLER_28_96
*1082 FILLER_29_102
*1083 FILLER_29_110
*1084 FILLER_29_113
*1085 FILLER_29_121
*1086 FILLER_29_129
*1087 FILLER_29_135
*1088 FILLER_29_147
*1089 FILLER_29_15
*1090 FILLER_29_159
*1091 FILLER_29_167
*1092 FILLER_29_169
*1093 FILLER_29_181
*1094 FILLER_29_193
*1095 FILLER_29_205
*1096 FILLER_29_217
*1097 FILLER_29_223
*1098 FILLER_29_225
*1099 FILLER_29_237
*1100 FILLER_29_249
*1101 FILLER_29_261
*1102 FILLER_29_273
*1103 FILLER_29_279
*1104 FILLER_29_281
*1105 FILLER_29_29
*1106 FILLER_29_293
*1107 FILLER_29_3
*1108 FILLER_29_40
*1109 FILLER_29_52
*1110 FILLER_29_57
*1111 FILLER_29_66
*1112 FILLER_29_78
*1113 FILLER_29_86
*1114 FILLER_29_94
*1115 FILLER_2_104
*1116 FILLER_2_124
*1117 FILLER_2_128
*1118 FILLER_2_136
*1119 FILLER_2_141
*1120 FILLER_2_148
*1121 FILLER_2_156
*1122 FILLER_2_162
*1123 FILLER_2_172
*1124 FILLER_2_179
*1125 FILLER_2_186
*1126 FILLER_2_194
*1127 FILLER_2_197
*1128 FILLER_2_209
*1129 FILLER_2_221
*1130 FILLER_2_233
*1131 FILLER_2_24
*1132 FILLER_2_245
*1133 FILLER_2_251
*1134 FILLER_2_253
*1135 FILLER_2_265
*1136 FILLER_2_277
*1137 FILLER_2_289
*1138 FILLER_2_29
*1139 FILLER_2_297
*1140 FILLER_2_3
*1141 FILLER_2_41
*1142 FILLER_2_49
*1143 FILLER_2_69
*1144 FILLER_2_75
*1145 FILLER_2_82
*1146 FILLER_2_85
*1147 FILLER_30_10
*1148 FILLER_30_105
*1149 FILLER_30_117
*1150 FILLER_30_129
*1151 FILLER_30_137
*1152 FILLER_30_141
*1153 FILLER_30_153
*1154 FILLER_30_165
*1155 FILLER_30_177
*1156 FILLER_30_189
*1157 FILLER_30_195
*1158 FILLER_30_197
*1159 FILLER_30_209
*1160 FILLER_30_217
*1161 FILLER_30_22
*1162 FILLER_30_227
*1163 FILLER_30_239
*1164 FILLER_30_251
*1165 FILLER_30_253
*1166 FILLER_30_265
*1167 FILLER_30_277
*1168 FILLER_30_289
*1169 FILLER_30_29
*1170 FILLER_30_297
*1171 FILLER_30_3
*1172 FILLER_30_38
*1173 FILLER_30_54
*1174 FILLER_30_62
*1175 FILLER_30_66
*1176 FILLER_30_70
*1177 FILLER_30_80
*1178 FILLER_30_85
*1179 FILLER_30_97
*1180 FILLER_31_110
*1181 FILLER_31_113
*1182 FILLER_31_125
*1183 FILLER_31_129
*1184 FILLER_31_134
*1185 FILLER_31_146
*1186 FILLER_31_15
*1187 FILLER_31_154
*1188 FILLER_31_164
*1189 FILLER_31_169
*1190 FILLER_31_182
*1191 FILLER_31_193
*1192 FILLER_31_205
*1193 FILLER_31_217
*1194 FILLER_31_223
*1195 FILLER_31_225
*1196 FILLER_31_237
*1197 FILLER_31_249
*1198 FILLER_31_261
*1199 FILLER_31_27
*1200 FILLER_31_273
*1201 FILLER_31_279
*1202 FILLER_31_281
*1203 FILLER_31_293
*1204 FILLER_31_3
*1205 FILLER_31_39
*1206 FILLER_31_51
*1207 FILLER_31_55
*1208 FILLER_31_57
*1209 FILLER_31_62
*1210 FILLER_31_74
*1211 FILLER_31_86
*1212 FILLER_31_98
*1213 FILLER_32_109
*1214 FILLER_32_121
*1215 FILLER_32_130
*1216 FILLER_32_138
*1217 FILLER_32_141
*1218 FILLER_32_15
*1219 FILLER_32_153
*1220 FILLER_32_165
*1221 FILLER_32_170
*1222 FILLER_32_182
*1223 FILLER_32_194
*1224 FILLER_32_197
*1225 FILLER_32_205
*1226 FILLER_32_210
*1227 FILLER_32_222
*1228 FILLER_32_234
*1229 FILLER_32_246
*1230 FILLER_32_253
*1231 FILLER_32_265
*1232 FILLER_32_27
*1233 FILLER_32_277
*1234 FILLER_32_289
*1235 FILLER_32_29
*1236 FILLER_32_297
*1237 FILLER_32_3
*1238 FILLER_32_35
*1239 FILLER_32_44
*1240 FILLER_32_52
*1241 FILLER_32_62
*1242 FILLER_32_68
*1243 FILLER_32_72
*1244 FILLER_32_81
*1245 FILLER_32_85
*1246 FILLER_32_97
*1247 FILLER_33_109
*1248 FILLER_33_113
*1249 FILLER_33_117
*1250 FILLER_33_123
*1251 FILLER_33_135
*1252 FILLER_33_147
*1253 FILLER_33_15
*1254 FILLER_33_159
*1255 FILLER_33_167
*1256 FILLER_33_169
*1257 FILLER_33_181
*1258 FILLER_33_193
*1259 FILLER_33_205
*1260 FILLER_33_217
*1261 FILLER_33_223
*1262 FILLER_33_225
*1263 FILLER_33_231
*1264 FILLER_33_241
*1265 FILLER_33_253
*1266 FILLER_33_265
*1267 FILLER_33_277
*1268 FILLER_33_281
*1269 FILLER_33_293
*1270 FILLER_33_3
*1271 FILLER_33_35
*1272 FILLER_33_39
*1273 FILLER_33_46
*1274 FILLER_33_54
*1275 FILLER_33_57
*1276 FILLER_33_69
*1277 FILLER_33_81
*1278 FILLER_33_89
*1279 FILLER_33_97
*1280 FILLER_34_103
*1281 FILLER_34_115
*1282 FILLER_34_119
*1283 FILLER_34_128
*1284 FILLER_34_13
*1285 FILLER_34_141
*1286 FILLER_34_153
*1287 FILLER_34_161
*1288 FILLER_34_169
*1289 FILLER_34_181
*1290 FILLER_34_193
*1291 FILLER_34_197
*1292 FILLER_34_209
*1293 FILLER_34_221
*1294 FILLER_34_233
*1295 FILLER_34_245
*1296 FILLER_34_25
*1297 FILLER_34_251
*1298 FILLER_34_253
*1299 FILLER_34_261
*1300 FILLER_34_269
*1301 FILLER_34_281
*1302 FILLER_34_29
*1303 FILLER_34_293
*1304 FILLER_34_3
*1305 FILLER_34_41
*1306 FILLER_34_50
*1307 FILLER_34_62
*1308 FILLER_34_7
*1309 FILLER_34_71
*1310 FILLER_34_83
*1311 FILLER_34_85
*1312 FILLER_34_89
*1313 FILLER_34_95
*1314 FILLER_35_102
*1315 FILLER_35_110
*1316 FILLER_35_113
*1317 FILLER_35_14
*1318 FILLER_35_146
*1319 FILLER_35_158
*1320 FILLER_35_166
*1321 FILLER_35_169
*1322 FILLER_35_177
*1323 FILLER_35_189
*1324 FILLER_35_201
*1325 FILLER_35_21
*1326 FILLER_35_213
*1327 FILLER_35_221
*1328 FILLER_35_225
*1329 FILLER_35_237
*1330 FILLER_35_249
*1331 FILLER_35_261
*1332 FILLER_35_273
*1333 FILLER_35_279
*1334 FILLER_35_281
*1335 FILLER_35_293
*1336 FILLER_35_3
*1337 FILLER_35_33
*1338 FILLER_35_45
*1339 FILLER_35_53
*1340 FILLER_35_57
*1341 FILLER_35_63
*1342 FILLER_35_75
*1343 FILLER_35_90
*1344 FILLER_36_109
*1345 FILLER_36_121
*1346 FILLER_36_133
*1347 FILLER_36_139
*1348 FILLER_36_141
*1349 FILLER_36_15
*1350 FILLER_36_161
*1351 FILLER_36_173
*1352 FILLER_36_185
*1353 FILLER_36_193
*1354 FILLER_36_197
*1355 FILLER_36_209
*1356 FILLER_36_221
*1357 FILLER_36_227
*1358 FILLER_36_239
*1359 FILLER_36_251
*1360 FILLER_36_253
*1361 FILLER_36_26
*1362 FILLER_36_265
*1363 FILLER_36_277
*1364 FILLER_36_289
*1365 FILLER_36_29
*1366 FILLER_36_297
*1367 FILLER_36_3
*1368 FILLER_36_38
*1369 FILLER_36_50
*1370 FILLER_36_54
*1371 FILLER_36_63
*1372 FILLER_36_67
*1373 FILLER_36_74
*1374 FILLER_36_82
*1375 FILLER_36_85
*1376 FILLER_36_91
*1377 FILLER_36_97
*1378 FILLER_37_101
*1379 FILLER_37_107
*1380 FILLER_37_11
*1381 FILLER_37_111
*1382 FILLER_37_113
*1383 FILLER_37_118
*1384 FILLER_37_130
*1385 FILLER_37_142
*1386 FILLER_37_154
*1387 FILLER_37_166
*1388 FILLER_37_169
*1389 FILLER_37_176
*1390 FILLER_37_188
*1391 FILLER_37_200
*1392 FILLER_37_212
*1393 FILLER_37_225
*1394 FILLER_37_23
*1395 FILLER_37_237
*1396 FILLER_37_249
*1397 FILLER_37_261
*1398 FILLER_37_273
*1399 FILLER_37_279
*1400 FILLER_37_281
*1401 FILLER_37_293
*1402 FILLER_37_3
*1403 FILLER_37_35
*1404 FILLER_37_54
*1405 FILLER_37_57
*1406 FILLER_37_65
*1407 FILLER_37_77
*1408 FILLER_37_89
*1409 FILLER_37_97
*1410 FILLER_38_109
*1411 FILLER_38_118
*1412 FILLER_38_124
*1413 FILLER_38_130
*1414 FILLER_38_138
*1415 FILLER_38_141
*1416 FILLER_38_153
*1417 FILLER_38_165
*1418 FILLER_38_177
*1419 FILLER_38_18
*1420 FILLER_38_189
*1421 FILLER_38_195
*1422 FILLER_38_197
*1423 FILLER_38_209
*1424 FILLER_38_221
*1425 FILLER_38_225
*1426 FILLER_38_231
*1427 FILLER_38_243
*1428 FILLER_38_251
*1429 FILLER_38_253
*1430 FILLER_38_26
*1431 FILLER_38_265
*1432 FILLER_38_277
*1433 FILLER_38_289
*1434 FILLER_38_29
*1435 FILLER_38_297
*1436 FILLER_38_3
*1437 FILLER_38_41
*1438 FILLER_38_53
*1439 FILLER_38_65
*1440 FILLER_38_69
*1441 FILLER_38_74
*1442 FILLER_38_82
*1443 FILLER_38_85
*1444 FILLER_38_97
*1445 FILLER_39_107
*1446 FILLER_39_111
*1447 FILLER_39_113
*1448 FILLER_39_120
*1449 FILLER_39_132
*1450 FILLER_39_144
*1451 FILLER_39_156
*1452 FILLER_39_169
*1453 FILLER_39_184
*1454 FILLER_39_196
*1455 FILLER_39_20
*1456 FILLER_39_208
*1457 FILLER_39_220
*1458 FILLER_39_225
*1459 FILLER_39_237
*1460 FILLER_39_249
*1461 FILLER_39_261
*1462 FILLER_39_273
*1463 FILLER_39_279
*1464 FILLER_39_28
*1465 FILLER_39_281
*1466 FILLER_39_293
*1467 FILLER_39_3
*1468 FILLER_39_33
*1469 FILLER_39_45
*1470 FILLER_39_53
*1471 FILLER_39_57
*1472 FILLER_39_69
*1473 FILLER_39_8
*1474 FILLER_39_81
*1475 FILLER_39_89
*1476 FILLER_39_95
*1477 FILLER_3_110
*1478 FILLER_3_113
*1479 FILLER_3_131
*1480 FILLER_3_141
*1481 FILLER_3_15
*1482 FILLER_3_150
*1483 FILLER_3_158
*1484 FILLER_3_165
*1485 FILLER_3_169
*1486 FILLER_3_174
*1487 FILLER_3_189
*1488 FILLER_3_201
*1489 FILLER_3_213
*1490 FILLER_3_221
*1491 FILLER_3_225
*1492 FILLER_3_237
*1493 FILLER_3_249
*1494 FILLER_3_261
*1495 FILLER_3_273
*1496 FILLER_3_279
*1497 FILLER_3_281
*1498 FILLER_3_293
*1499 FILLER_3_3
*1500 FILLER_3_34
*1501 FILLER_3_54
*1502 FILLER_3_57
*1503 FILLER_3_76
*1504 FILLER_3_80
*1505 FILLER_3_98
*1506 FILLER_40_109
*1507 FILLER_40_121
*1508 FILLER_40_133
*1509 FILLER_40_139
*1510 FILLER_40_141
*1511 FILLER_40_15
*1512 FILLER_40_153
*1513 FILLER_40_165
*1514 FILLER_40_177
*1515 FILLER_40_189
*1516 FILLER_40_195
*1517 FILLER_40_197
*1518 FILLER_40_209
*1519 FILLER_40_221
*1520 FILLER_40_233
*1521 FILLER_40_245
*1522 FILLER_40_25
*1523 FILLER_40_251
*1524 FILLER_40_253
*1525 FILLER_40_265
*1526 FILLER_40_277
*1527 FILLER_40_289
*1528 FILLER_40_29
*1529 FILLER_40_297
*1530 FILLER_40_3
*1531 FILLER_40_41
*1532 FILLER_40_49
*1533 FILLER_40_53
*1534 FILLER_40_63
*1535 FILLER_40_72
*1536 FILLER_40_85
*1537 FILLER_40_97
*1538 FILLER_41_107
*1539 FILLER_41_111
*1540 FILLER_41_113
*1541 FILLER_41_125
*1542 FILLER_41_137
*1543 FILLER_41_149
*1544 FILLER_41_15
*1545 FILLER_41_161
*1546 FILLER_41_167
*1547 FILLER_41_169
*1548 FILLER_41_181
*1549 FILLER_41_193
*1550 FILLER_41_201
*1551 FILLER_41_209
*1552 FILLER_41_221
*1553 FILLER_41_225
*1554 FILLER_41_237
*1555 FILLER_41_249
*1556 FILLER_41_261
*1557 FILLER_41_273
*1558 FILLER_41_279
*1559 FILLER_41_281
*1560 FILLER_41_293
*1561 FILLER_41_3
*1562 FILLER_41_30
*1563 FILLER_41_42
*1564 FILLER_41_54
*1565 FILLER_41_57
*1566 FILLER_41_69
*1567 FILLER_41_80
*1568 FILLER_41_87
*1569 FILLER_41_99
*1570 FILLER_42_102
*1571 FILLER_42_110
*1572 FILLER_42_115
*1573 FILLER_42_127
*1574 FILLER_42_139
*1575 FILLER_42_14
*1576 FILLER_42_141
*1577 FILLER_42_153
*1578 FILLER_42_165
*1579 FILLER_42_177
*1580 FILLER_42_18
*1581 FILLER_42_189
*1582 FILLER_42_195
*1583 FILLER_42_197
*1584 FILLER_42_209
*1585 FILLER_42_221
*1586 FILLER_42_233
*1587 FILLER_42_245
*1588 FILLER_42_25
*1589 FILLER_42_251
*1590 FILLER_42_253
*1591 FILLER_42_265
*1592 FILLER_42_277
*1593 FILLER_42_289
*1594 FILLER_42_29
*1595 FILLER_42_297
*1596 FILLER_42_3
*1597 FILLER_42_36
*1598 FILLER_42_48
*1599 FILLER_42_55
*1600 FILLER_42_65
*1601 FILLER_42_77
*1602 FILLER_42_8
*1603 FILLER_42_83
*1604 FILLER_42_85
*1605 FILLER_42_90
*1606 FILLER_43_105
*1607 FILLER_43_111
*1608 FILLER_43_113
*1609 FILLER_43_125
*1610 FILLER_43_137
*1611 FILLER_43_149
*1612 FILLER_43_15
*1613 FILLER_43_161
*1614 FILLER_43_167
*1615 FILLER_43_169
*1616 FILLER_43_181
*1617 FILLER_43_19
*1618 FILLER_43_193
*1619 FILLER_43_205
*1620 FILLER_43_217
*1621 FILLER_43_223
*1622 FILLER_43_225
*1623 FILLER_43_237
*1624 FILLER_43_249
*1625 FILLER_43_25
*1626 FILLER_43_277
*1627 FILLER_43_281
*1628 FILLER_43_293
*1629 FILLER_43_3
*1630 FILLER_43_31
*1631 FILLER_43_35
*1632 FILLER_43_43
*1633 FILLER_43_49
*1634 FILLER_43_55
*1635 FILLER_43_57
*1636 FILLER_43_63
*1637 FILLER_43_75
*1638 FILLER_43_87
*1639 FILLER_43_93
*1640 FILLER_44_101
*1641 FILLER_44_110
*1642 FILLER_44_122
*1643 FILLER_44_134
*1644 FILLER_44_141
*1645 FILLER_44_15
*1646 FILLER_44_153
*1647 FILLER_44_165
*1648 FILLER_44_177
*1649 FILLER_44_189
*1650 FILLER_44_195
*1651 FILLER_44_197
*1652 FILLER_44_209
*1653 FILLER_44_221
*1654 FILLER_44_233
*1655 FILLER_44_245
*1656 FILLER_44_251
*1657 FILLER_44_253
*1658 FILLER_44_265
*1659 FILLER_44_27
*1660 FILLER_44_277
*1661 FILLER_44_289
*1662 FILLER_44_29
*1663 FILLER_44_297
*1664 FILLER_44_3
*1665 FILLER_44_41
*1666 FILLER_44_53
*1667 FILLER_44_62
*1668 FILLER_44_74
*1669 FILLER_44_82
*1670 FILLER_44_85
*1671 FILLER_44_93
*1672 FILLER_45_108
*1673 FILLER_45_113
*1674 FILLER_45_125
*1675 FILLER_45_133
*1676 FILLER_45_145
*1677 FILLER_45_15
*1678 FILLER_45_157
*1679 FILLER_45_165
*1680 FILLER_45_169
*1681 FILLER_45_181
*1682 FILLER_45_193
*1683 FILLER_45_205
*1684 FILLER_45_217
*1685 FILLER_45_223
*1686 FILLER_45_225
*1687 FILLER_45_237
*1688 FILLER_45_249
*1689 FILLER_45_261
*1690 FILLER_45_27
*1691 FILLER_45_273
*1692 FILLER_45_279
*1693 FILLER_45_281
*1694 FILLER_45_293
*1695 FILLER_45_3
*1696 FILLER_45_35
*1697 FILLER_45_41
*1698 FILLER_45_53
*1699 FILLER_45_57
*1700 FILLER_45_69
*1701 FILLER_45_84
*1702 FILLER_45_96
*1703 FILLER_46_109
*1704 FILLER_46_119
*1705 FILLER_46_126