*SPEF "ieee 1481-1999"
*DESIGN "clemensnasenberg_top"
*DATE "11:11:11 Fri 11 11, 1111"
*VENDOR "OpenRCX"
*PROGRAM "Parallel Extraction"
*VERSION "1.0"
*DESIGN_FLOW "NAME_SCOPE LOCAL" "PIN_CAP NONE"
*DIVIDER /
*DELIMITER :
*BUS_DELIMITER []
*T_UNIT 1 NS
*C_UNIT 1 PF
*R_UNIT 1 OHM
*L_UNIT 1 HENRY

*NAME_MAP
*1 io_in[0]
*2 io_in[1]
*3 io_in[2]
*4 io_in[3]
*5 io_in[4]
*6 io_in[5]
*7 io_in[6]
*8 io_in[7]
*9 io_out[0]
*10 io_out[1]
*11 io_out[2]
*12 net7
*13 net8
*14 net9
*15 net10
*16 net11
*19 _0024_
*20 _0025_
*21 _0026_
*22 _0027_
*23 _0028_
*24 _0029_
*25 _0030_
*26 _0031_
*27 _0032_
*28 _0033_
*29 _0034_
*30 _0035_
*31 _0036_
*32 _0037_
*33 _0038_
*34 _0039_
*35 _0040_
*36 _0041_
*37 _0042_
*38 _0043_
*39 _0044_
*40 _0045_
*41 _0046_
*42 _0047_
*43 _0048_
*44 _0049_
*45 _0050_
*46 _0051_
*47 _0052_
*48 _0053_
*49 _0054_
*50 _0055_
*51 _0056_
*52 _0057_
*53 _0058_
*54 _0059_
*55 _0060_
*56 _0061_
*57 _0062_
*58 _0063_
*59 _0064_
*60 _0065_
*61 _0066_
*62 _0067_
*63 _0068_
*64 _0069_
*65 _0070_
*66 _0071_
*67 _0072_
*68 _0073_
*69 _0074_
*70 _0075_
*71 _0076_
*72 _0077_
*73 _0078_
*74 _0079_
*75 _0080_
*76 _0081_
*77 _0082_
*78 _0083_
*79 _0084_
*80 _0085_
*81 _0086_
*82 _0087_
*83 _0088_
*84 _0089_
*85 _0090_
*86 _0091_
*87 _0092_
*88 _0093_
*89 _0094_
*90 _0095_
*91 _0096_
*92 _0097_
*93 _0098_
*94 _0099_
*95 _0100_
*96 _0101_
*97 _0102_
*98 _0103_
*99 _0104_
*100 _0105_
*101 _0106_
*102 _0107_
*103 _0108_
*104 _0109_
*105 _0110_
*106 _0111_
*107 _0112_
*108 _0113_
*109 _0114_
*110 _0115_
*111 _0116_
*112 _0117_
*113 _0118_
*114 _0119_
*115 _0120_
*116 _0121_
*117 _0122_
*118 _0123_
*119 _0124_
*120 _0125_
*121 _0126_
*122 _0127_
*123 _0128_
*124 _0129_
*125 _0130_
*126 _0131_
*127 _0132_
*128 _0133_
*129 _0134_
*130 _0135_
*131 _0136_
*132 _0137_
*133 _0138_
*134 _0139_
*135 _0140_
*136 _0141_
*137 _0142_
*138 _0143_
*139 _0144_
*140 _0145_
*141 _0146_
*142 _0147_
*143 _0148_
*144 _0149_
*145 _0150_
*146 _0151_
*147 _0152_
*148 _0153_
*149 _0154_
*150 _0155_
*151 _0156_
*152 _0157_
*153 _0158_
*154 _0159_
*155 _0160_
*156 _0161_
*157 _0162_
*158 _0163_
*159 _0164_
*160 _0165_
*161 _0166_
*162 _0167_
*163 _0168_
*164 _0169_
*165 _0170_
*166 _0171_
*167 _0172_
*168 _0173_
*169 _0174_
*170 _0175_
*171 _0176_
*172 _0177_
*173 _0178_
*174 _0179_
*175 _0180_
*176 _0181_
*177 _0182_
*178 _0183_
*179 _0184_
*180 _0185_
*181 _0186_
*182 _0187_
*183 _0188_
*184 _0189_
*185 _0190_
*186 _0191_
*187 _0192_
*188 _0193_
*189 _0194_
*190 _0195_
*191 _0196_
*192 _0197_
*193 _0198_
*194 _0199_
*195 _0200_
*196 _0201_
*197 _0202_
*198 _0203_
*199 _0204_
*200 _0205_
*201 _0206_
*202 _0207_
*203 _0208_
*204 _0209_
*205 _0210_
*206 _0211_
*207 _0212_
*208 _0213_
*209 _0214_
*210 _0215_
*211 _0216_
*212 _0217_
*213 _0218_
*214 _0219_
*215 _0220_
*216 _0221_
*217 _0222_
*218 _0223_
*219 _0224_
*220 _0225_
*221 _0226_
*222 _0227_
*223 _0228_
*224 _0229_
*225 _0230_
*226 _0231_
*227 _0232_
*228 _0233_
*229 _0234_
*230 _0235_
*231 _0236_
*232 _0237_
*233 _0238_
*234 _0239_
*235 _0240_
*236 _0241_
*237 _0242_
*238 _0243_
*239 _0244_
*240 _0245_
*241 _0246_
*242 _0247_
*243 _0248_
*244 _0249_
*245 _0250_
*246 _0251_
*247 _0252_
*248 _0253_
*249 _0254_
*250 _0255_
*251 _0256_
*252 _0257_
*253 _0258_
*254 _0259_
*255 _0260_
*256 _0261_
*257 _0262_
*258 _0263_
*259 _0264_
*260 _0265_
*261 _0266_
*262 _0267_
*263 _0268_
*264 _0269_
*265 _0270_
*266 _0271_
*267 _0272_
*268 _0273_
*269 _0274_
*270 _0275_
*271 _0276_
*272 _0277_
*273 _0278_
*274 _0279_
*275 _0280_
*276 _0281_
*277 _0282_
*278 _0283_
*279 _0284_
*280 _0285_
*281 _0286_
*282 _0287_
*283 _0288_
*284 _0289_
*285 _0290_
*286 _0291_
*287 _0292_
*288 _0293_
*289 _0294_
*290 _0295_
*291 _0296_
*292 _0297_
*293 _0298_
*294 _0299_
*295 _0300_
*296 _0301_
*297 _0302_
*298 _0303_
*299 _0304_
*300 _0305_
*301 _0306_
*302 _0307_
*303 _0308_
*304 _0309_
*305 _0310_
*306 _0311_
*307 _0312_
*308 _0313_
*309 _0314_
*310 _0315_
*311 _0316_
*312 _0317_
*313 _0318_
*314 _0319_
*315 _0320_
*316 _0321_
*317 _0322_
*318 _0323_
*319 _0324_
*320 _0325_
*321 _0326_
*322 _0327_
*323 _0328_
*324 _0329_
*325 _0330_
*326 _0331_
*327 _0332_
*328 _0333_
*329 _0334_
*330 _0335_
*331 _0336_
*332 _0337_
*333 _0338_
*334 _0339_
*335 _0340_
*336 _0341_
*337 _0342_
*338 _0343_
*339 _0344_
*340 _0345_
*341 _0346_
*342 _0347_
*343 _0348_
*344 _0349_
*345 _0350_
*346 _0351_
*347 _0352_
*348 _0353_
*349 _0354_
*350 _0355_
*351 _0356_
*352 _0357_
*353 _0358_
*354 _0359_
*355 _0360_
*356 _0361_
*357 _0362_
*358 _0363_
*359 _0364_
*360 _0365_
*361 _0366_
*362 _0367_
*363 _0368_
*364 _0369_
*365 _0370_
*366 _0371_
*367 _0372_
*368 _0373_
*369 _0374_
*370 _0375_
*371 _0376_
*372 _0377_
*373 _0378_
*374 _0379_
*375 _0380_
*376 _0381_
*377 _0382_
*378 _0383_
*379 _0384_
*380 _0385_
*381 _0386_
*382 _0387_
*383 _0388_
*384 _0389_
*385 _0390_
*386 _0391_
*387 _0392_
*388 _0393_
*389 _0394_
*390 _0395_
*391 _0396_
*392 _0397_
*393 _0398_
*394 _0399_
*395 _0400_
*396 _0401_
*397 _0402_
*398 _0403_
*399 _0404_
*400 _0405_
*401 _0406_
*402 _0407_
*403 _0408_
*404 _0409_
*405 _0410_
*406 _0411_
*407 _0412_
*408 _0413_
*409 _0414_
*410 _0415_
*411 _0416_
*412 _0417_
*413 _0418_
*414 _0419_
*415 _0420_
*416 _0421_
*417 _0422_
*418 _0423_
*419 _0424_
*420 _0425_
*421 _0426_
*422 _0427_
*423 _0428_
*424 _0429_
*425 _0430_
*426 _0431_
*427 _0432_
*428 _0433_
*429 _0434_
*430 _0435_
*431 _0436_
*432 _0437_
*433 _0438_
*434 _0439_
*435 _0440_
*436 _0441_
*437 _0442_
*438 _0443_
*439 _0444_
*440 _0445_
*441 _0446_
*442 _0447_
*443 _0448_
*444 _0449_
*445 _0450_
*446 _0451_
*447 _0452_
*448 _0453_
*449 _0454_
*450 _0455_
*451 _0456_
*452 _0457_
*453 _0458_
*454 _0459_
*455 _0460_
*456 _0461_
*457 _0462_
*458 _0463_
*459 _0464_
*460 _0465_
*461 _0466_
*462 _0467_
*463 _0468_
*464 _0469_
*465 _0470_
*466 _0471_
*467 _0472_
*468 _0473_
*469 _0474_
*470 _0475_
*471 _0476_
*472 _0477_
*473 _0478_
*474 _0479_
*475 _0480_
*476 _0481_
*477 _0482_
*478 _0483_
*479 _0484_
*480 _0485_
*481 _0486_
*482 _0487_
*483 _0488_
*484 _0489_
*485 _0490_
*486 _0491_
*487 _0492_
*488 _0493_
*489 _0494_
*490 _0495_
*491 _0496_
*492 _0497_
*493 _0498_
*494 _0499_
*495 _0500_
*496 _0501_
*497 _0502_
*498 _0503_
*499 _0504_
*500 _0505_
*501 _0506_
*502 _0507_
*503 _0508_
*504 _0509_
*505 _0510_
*506 _0511_
*507 _0512_
*508 _0513_
*509 _0514_
*510 _0515_
*511 _0516_
*512 _0517_
*513 _0518_
*514 _0519_
*515 _0520_
*516 _0521_
*517 _0522_
*518 _0523_
*519 _0524_
*520 _0525_
*521 _0526_
*522 _0527_
*523 _0528_
*524 _0529_
*525 _0530_
*526 _0531_
*527 _0532_
*528 _0533_
*529 _0534_
*530 _0535_
*531 _0536_
*532 _0537_
*533 _0538_
*534 _0539_
*535 _0540_
*536 _0541_
*537 _0542_
*538 _0543_
*539 _0544_
*540 _0545_
*541 _0546_
*542 _0547_
*543 _0548_
*544 _0549_
*545 _0550_
*546 _0551_
*547 _0552_
*548 _0553_
*549 _0554_
*550 _0555_
*551 _0556_
*552 _0557_
*553 _0558_
*554 _0559_
*555 _0560_
*556 _0561_
*557 _0562_
*558 _0563_
*559 _0564_
*560 _0565_
*561 _0566_
*562 _0567_
*563 _0568_
*564 _0569_
*565 _0570_
*566 _0571_
*567 _0572_
*568 _0573_
*569 _0574_
*570 _0575_
*571 _0576_
*572 _0577_
*573 _0578_
*574 _0579_
*575 _0580_
*576 _0581_
*577 _0582_
*578 _0583_
*579 _0584_
*580 _0585_
*581 _0586_
*582 _0587_
*583 _0588_
*584 _0589_
*585 _0590_
*586 _0591_
*587 _0592_
*588 _0593_
*589 _0594_
*590 _0595_
*591 _0596_
*592 _0597_
*593 _0598_
*594 _0599_
*595 _0600_
*596 _0601_
*597 _0602_
*598 _0603_
*599 _0604_
*600 _0605_
*601 _0606_
*602 _0607_
*603 _0608_
*604 _0609_
*605 _0610_
*606 _0611_
*607 _0612_
*608 _0613_
*609 _0614_
*610 _0615_
*611 _0616_
*612 _0617_
*613 _0618_
*614 clknet_0__0394_
*615 clknet_0__0395_
*616 clknet_0_io_in[0]
*617 clknet_1_0__leaf__0394_
*618 clknet_1_0__leaf__0395_
*619 clknet_1_1__leaf__0394_
*620 clknet_1_1__leaf__0395_
*621 clknet_4_0_0_io_in[0]
*622 clknet_4_10_0_io_in[0]
*623 clknet_4_11_0_io_in[0]
*624 clknet_4_12_0_io_in[0]
*625 clknet_4_13_0_io_in[0]
*626 clknet_4_14_0_io_in[0]
*627 clknet_4_15_0_io_in[0]
*628 clknet_4_1_0_io_in[0]
*629 clknet_4_2_0_io_in[0]
*630 clknet_4_3_0_io_in[0]
*631 clknet_4_4_0_io_in[0]
*632 clknet_4_5_0_io_in[0]
*633 clknet_4_6_0_io_in[0]
*634 clknet_4_7_0_io_in[0]
*635 clknet_4_8_0_io_in[0]
*636 clknet_4_9_0_io_in[0]
*637 control_reg\[0\]
*638 control_reg\[10\]
*639 control_reg\[11\]
*640 control_reg\[12\]
*641 control_reg\[13\]
*642 control_reg\[14\]
*643 control_reg\[15\]
*644 control_reg\[16\]
*645 control_reg\[17\]
*646 control_reg\[18\]
*647 control_reg\[19\]
*648 control_reg\[1\]
*649 control_reg\[20\]
*650 control_reg\[21\]
*651 control_reg\[22\]
*652 control_reg\[2\]
*653 control_reg\[3\]
*654 control_reg\[4\]
*655 control_reg\[5\]
*656 control_reg\[6\]
*657 control_reg\[7\]
*658 control_reg\[8\]
*659 control_reg\[9\]
*660 data_ch1\[0\]
*661 data_ch1\[10\]
*662 data_ch1\[11\]
*663 data_ch1\[12\]
*664 data_ch1\[13\]
*665 data_ch1\[14\]
*666 data_ch1\[15\]
*667 data_ch1\[16\]
*668 data_ch1\[17\]
*669 data_ch1\[18\]
*670 data_ch1\[19\]
*671 data_ch1\[1\]
*672 data_ch1\[20\]
*673 data_ch1\[21\]
*674 data_ch1\[22\]
*675 data_ch1\[23\]
*676 data_ch1\[2\]
*677 data_ch1\[3\]
*678 data_ch1\[4\]
*679 data_ch1\[5\]
*680 data_ch1\[6\]
*681 data_ch1\[7\]
*682 data_ch1\[8\]
*683 data_ch1\[9\]
*684 data_ch2\[0\]
*685 data_ch2\[10\]
*686 data_ch2\[11\]
*687 data_ch2\[12\]
*688 data_ch2\[13\]
*689 data_ch2\[14\]
*690 data_ch2\[15\]
*691 data_ch2\[16\]
*692 data_ch2\[17\]
*693 data_ch2\[18\]
*694 data_ch2\[19\]
*695 data_ch2\[1\]
*696 data_ch2\[20\]
*697 data_ch2\[21\]
*698 data_ch2\[22\]
*699 data_ch2\[23\]
*700 data_ch2\[2\]
*701 data_ch2\[3\]
*702 data_ch2\[4\]
*703 data_ch2\[5\]
*704 data_ch2\[6\]
*705 data_ch2\[7\]
*706 data_ch2\[8\]
*707 data_ch2\[9\]
*708 data_left_add\[10\]
*709 data_left_add\[11\]
*710 data_left_add\[12\]
*711 data_left_add\[13\]
*712 data_left_add\[14\]
*713 data_left_add\[15\]
*714 data_left_add\[16\]
*715 data_left_add\[17\]
*716 data_left_add\[18\]
*717 data_left_add\[19\]
*718 data_left_add\[1\]
*719 data_left_add\[20\]
*720 data_left_add\[21\]
*721 data_left_add\[22\]
*722 data_left_add\[23\]
*723 data_left_add\[24\]
*724 data_left_add\[2\]
*725 data_left_add\[3\]
*726 data_left_add\[4\]
*727 data_left_add\[5\]
*728 data_left_add\[6\]
*729 data_left_add\[7\]
*730 data_left_add\[8\]
*731 data_left_add\[9\]
*732 data_right_add\[10\]
*733 data_right_add\[11\]
*734 data_right_add\[12\]
*735 data_right_add\[13\]
*736 data_right_add\[14\]
*737 data_right_add\[15\]
*738 data_right_add\[16\]
*739 data_right_add\[17\]
*740 data_right_add\[18\]
*741 data_right_add\[19\]
*742 data_right_add\[1\]
*743 data_right_add\[20\]
*744 data_right_add\[21\]
*745 data_right_add\[22\]
*746 data_right_add\[23\]
*747 data_right_add\[24\]
*748 data_right_add\[2\]
*749 data_right_add\[3\]
*750 data_right_add\[4\]
*751 data_right_add\[5\]
*752 data_right_add\[6\]
*753 data_right_add\[7\]
*754 data_right_add\[8\]
*755 data_right_add\[9\]
*756 data_shift\[0\]
*757 data_shift\[10\]
*758 data_shift\[11\]
*759 data_shift\[12\]
*760 data_shift\[13\]
*761 data_shift\[14\]
*762 data_shift\[15\]
*763 data_shift\[16\]
*764 data_shift\[17\]
*765 data_shift\[18\]
*766 data_shift\[19\]
*767 data_shift\[1\]
*768 data_shift\[20\]
*769 data_shift\[21\]
*770 data_shift\[22\]
*771 data_shift\[23\]
*772 data_shift\[2\]
*773 data_shift\[3\]
*774 data_shift\[4\]
*775 data_shift\[5\]
*776 data_shift\[6\]
*777 data_shift\[7\]
*778 data_shift\[8\]
*779 data_shift\[9\]
*780 net1
*781 net12
*782 net13
*783 net14
*784 net15
*785 net16
*786 net17
*787 net18
*788 net19
*789 net2
*790 net20
*791 net21
*792 net22
*793 net23
*794 net24
*795 net25
*796 net26
*797 net27
*798 net28
*799 net29
*800 net3
*801 net30
*802 net31
*803 net32
*804 net33
*805 net34
*806 net35
*807 net36
*808 net4
*809 net5
*810 net6
*811 wsd
*812 wsd_reg
*813 wsp
*814 ANTENNA_1
*815 ANTENNA_2
*816 FILLER_0_109
*817 FILLER_0_113
*818 FILLER_0_118
*819 FILLER_0_122
*820 FILLER_0_126
*821 FILLER_0_134
*822 FILLER_0_141
*823 FILLER_0_157
*824 FILLER_0_164
*825 FILLER_0_169
*826 FILLER_0_177
*827 FILLER_0_186
*828 FILLER_0_193
*829 FILLER_0_197
*830 FILLER_0_202
*831 FILLER_0_209
*832 FILLER_0_21
*833 FILLER_0_216
*834 FILLER_0_225
*835 FILLER_0_230
*836 FILLER_0_242
*837 FILLER_0_250
*838 FILLER_0_253
*839 FILLER_0_265
*840 FILLER_0_27
*841 FILLER_0_277
*842 FILLER_0_281
*843 FILLER_0_29
*844 FILLER_0_293
*845 FILLER_0_3
*846 FILLER_0_36
*847 FILLER_0_44
*848 FILLER_0_49
*849 FILLER_0_55
*850 FILLER_0_57
*851 FILLER_0_75
*852 FILLER_0_82
*853 FILLER_0_85
*854 FILLER_0_91
*855 FILLER_0_98
*856 FILLER_10_106
*857 FILLER_10_11
*858 FILLER_10_110
*859 FILLER_10_121
*860 FILLER_10_135
*861 FILLER_10_139
*862 FILLER_10_141
*863 FILLER_10_151
*864 FILLER_10_155
*865 FILLER_10_172
*866 FILLER_10_180
*867 FILLER_10_188
*868 FILLER_10_19
*869 FILLER_10_197
*870 FILLER_10_202
*871 FILLER_10_210
*872 FILLER_10_227
*873 FILLER_10_232
*874 FILLER_10_236
*875 FILLER_10_241
*876 FILLER_10_249
*877 FILLER_10_25
*878 FILLER_10_253
*879 FILLER_10_265
*880 FILLER_10_277
*881 FILLER_10_289
*882 FILLER_10_29
*883 FILLER_10_297
*884 FILLER_10_3
*885 FILLER_10_37
*886 FILLER_10_48
*887 FILLER_10_52
*888 FILLER_10_58
*889 FILLER_10_68
*890 FILLER_10_79
*891 FILLER_10_83
*892 FILLER_10_85
*893 FILLER_10_98
*894 FILLER_11_110
*895 FILLER_11_113
*896 FILLER_11_127
*897 FILLER_11_137
*898 FILLER_11_157
*899 FILLER_11_166
*900 FILLER_11_169
*901 FILLER_11_188
*902 FILLER_11_208
*903 FILLER_11_216
*904 FILLER_11_225
*905 FILLER_11_230
*906 FILLER_11_237
*907 FILLER_11_249
*908 FILLER_11_261
*909 FILLER_11_273
*910 FILLER_11_279
*911 FILLER_11_281
*912 FILLER_11_293
*913 FILLER_11_3
*914 FILLER_11_33
*915 FILLER_11_46
*916 FILLER_11_54
*917 FILLER_11_57
*918 FILLER_11_70
*919 FILLER_11_77
*920 FILLER_11_9
*921 FILLER_11_97
*922 FILLER_12_113
*923 FILLER_12_117
*924 FILLER_12_123
*925 FILLER_12_134
*926 FILLER_12_141
*927 FILLER_12_147
*928 FILLER_12_162
*929 FILLER_12_174
*930 FILLER_12_186
*931 FILLER_12_190
*932 FILLER_12_194
*933 FILLER_12_197
*934 FILLER_12_204
*935 FILLER_12_21
*936 FILLER_12_212
*937 FILLER_12_234
*938 FILLER_12_246
*939 FILLER_12_253
*940 FILLER_12_265
*941 FILLER_12_27
*942 FILLER_12_277
*943 FILLER_12_289
*944 FILLER_12_29
*945 FILLER_12_297
*946 FILLER_12_3
*947 FILLER_12_51
*948 FILLER_12_65
*949 FILLER_12_73
*950 FILLER_12_82
*951 FILLER_12_85
*952 FILLER_12_93
*953 FILLER_13_110
*954 FILLER_13_113
*955 FILLER_13_119
*956 FILLER_13_125
*957 FILLER_13_136
*958 FILLER_13_142
*959 FILLER_13_151
*960 FILLER_13_157
*961 FILLER_13_16
*962 FILLER_13_166
*963 FILLER_13_169
*964 FILLER_13_173
*965 FILLER_13_181
*966 FILLER_13_187
*967 FILLER_13_204
*968 FILLER_13_212
*969 FILLER_13_219
*970 FILLER_13_223
*971 FILLER_13_225
*972 FILLER_13_230
*973 FILLER_13_237
*974 FILLER_13_249
*975 FILLER_13_261
*976 FILLER_13_273
*977 FILLER_13_279
*978 FILLER_13_281
*979 FILLER_13_293
*980 FILLER_13_3
*981 FILLER_13_36
*982 FILLER_13_45
*983 FILLER_13_54
*984 FILLER_13_57
*985 FILLER_13_67
*986 FILLER_13_76
*987 FILLER_13_84
*988 FILLER_13_97
*989 FILLER_14_105
*990 FILLER_14_11
*991 FILLER_14_118
*992 FILLER_14_131
*993 FILLER_14_138
*994 FILLER_14_141
*995 FILLER_14_159
*996 FILLER_14_179
*997 FILLER_14_19
*998 FILLER_14_190
*999 FILLER_14_197
*1000 FILLER_14_204
*1001 FILLER_14_232
*1002 FILLER_14_239
*1003 FILLER_14_25
*1004 FILLER_14_251
*1005 FILLER_14_253
*1006 FILLER_14_265
*1007 FILLER_14_277
*1008 FILLER_14_289
*1009 FILLER_14_29
*1010 FILLER_14_297
*1011 FILLER_14_3
*1012 FILLER_14_35
*1013 FILLER_14_43
*1014 FILLER_14_48
*1015 FILLER_14_55
*1016 FILLER_14_62
*1017 FILLER_14_71
*1018 FILLER_14_82
*1019 FILLER_14_85
*1020 FILLER_14_92
*1021 FILLER_15_103
*1022 FILLER_15_11
*1023 FILLER_15_110
*1024 FILLER_15_113
*1025 FILLER_15_131
*1026 FILLER_15_138
*1027 FILLER_15_142
*1028 FILLER_15_151
*1029 FILLER_15_155
*1030 FILLER_15_163
*1031 FILLER_15_167
*1032 FILLER_15_169
*1033 FILLER_15_178
*1034 FILLER_15_18
*1035 FILLER_15_187
*1036 FILLER_15_202
*1037 FILLER_15_222
*1038 FILLER_15_225
*1039 FILLER_15_234
*1040 FILLER_15_246
*1041 FILLER_15_258
*1042 FILLER_15_270
*1043 FILLER_15_278
*1044 FILLER_15_281
*1045 FILLER_15_293
*1046 FILLER_15_3
*1047 FILLER_15_38
*1048 FILLER_15_47
*1049 FILLER_15_54
*1050 FILLER_15_57
*1051 FILLER_15_70
*1052 FILLER_15_81
*1053 FILLER_16_101
*1054 FILLER_16_107
*1055 FILLER_16_114
*1056 FILLER_16_120
*1057 FILLER_16_138
*1058 FILLER_16_141
*1059 FILLER_16_149
*1060 FILLER_16_164
*1061 FILLER_16_176
*1062 FILLER_16_184
*1063 FILLER_16_193
*1064 FILLER_16_197
*1065 FILLER_16_21
*1066 FILLER_16_215
*1067 FILLER_16_235
*1068 FILLER_16_242
*1069 FILLER_16_250
*1070 FILLER_16_253
*1071 FILLER_16_265
*1072 FILLER_16_27
*1073 FILLER_16_277
*1074 FILLER_16_289
*1075 FILLER_16_29
*1076 FILLER_16_297
*1077 FILLER_16_3
*1078 FILLER_16_36
*1079 FILLER_16_56
*1080 FILLER_16_71
*1081 FILLER_16_82
*1082 FILLER_16_85
*1083 FILLER_16_93
*1084 FILLER_17_103
*1085 FILLER_17_110
*1086 FILLER_17_113
*1087 FILLER_17_121
*1088 FILLER_17_136
*1089 FILLER_17_142
*1090 FILLER_17_159
*1091 FILLER_17_166
*1092 FILLER_17_169
*1093 FILLER_17_187
*1094 FILLER_17_196
*1095 FILLER_17_205
*1096 FILLER_17_21
*1097 FILLER_17_213
*1098 FILLER_17_220
*1099 FILLER_17_225
*1100 FILLER_17_230
*1101 FILLER_17_242
*1102 FILLER_17_254
*1103 FILLER_17_266
*1104 FILLER_17_278
*1105 FILLER_17_281
*1106 FILLER_17_293
*1107 FILLER_17_3
*1108 FILLER_17_30
*1109 FILLER_17_38
*1110 FILLER_17_48
*1111 FILLER_17_57
*1112 FILLER_17_62
*1113 FILLER_17_74
*1114 FILLER_17_8
*1115 FILLER_17_84
*1116 FILLER_17_95
*1117 FILLER_17_99
*1118 FILLER_18_101
*1119 FILLER_18_121
*1120 FILLER_18_132
*1121 FILLER_18_141
*1122 FILLER_18_151
*1123 FILLER_18_162
*1124 FILLER_18_181
*1125 FILLER_18_193
*1126 FILLER_18_197
*1127 FILLER_18_204
*1128 FILLER_18_21
*1129 FILLER_18_210
*1130 FILLER_18_227
*1131 FILLER_18_239
*1132 FILLER_18_251
*1133 FILLER_18_253
*1134 FILLER_18_265
*1135 FILLER_18_27
*1136 FILLER_18_277
*1137 FILLER_18_289
*1138 FILLER_18_29
*1139 FILLER_18_297
*1140 FILLER_18_3
*1141 FILLER_18_36
*1142 FILLER_18_49
*1143 FILLER_18_57
*1144 FILLER_18_68
*1145 FILLER_18_79
*1146 FILLER_18_83
*1147 FILLER_18_85
*1148 FILLER_18_94
*1149 FILLER_19_109
*1150 FILLER_19_113
*1151 FILLER_19_122
*1152 FILLER_19_133
*1153 FILLER_19_139
*1154 FILLER_19_14
*1155 FILLER_19_156
*1156 FILLER_19_165
*1157 FILLER_19_169
*1158 FILLER_19_178
*1159 FILLER_19_186
*1160 FILLER_19_204
*1161 FILLER_19_213
*1162 FILLER_19_221
*1163 FILLER_19_225
*1164 FILLER_19_237
*1165 FILLER_19_249
*1166 FILLER_19_261
*1167 FILLER_19_273
*1168 FILLER_19_279
*1169 FILLER_19_281
*1170 FILLER_19_293
*1171 FILLER_19_3
*1172 FILLER_19_34
*1173 FILLER_19_54
*1174 FILLER_19_57
*1175 FILLER_19_66
*1176 FILLER_19_82
*1177 FILLER_19_9
*1178 FILLER_19_96
*1179 FILLER_1_10
*1180 FILLER_1_108
*1181 FILLER_1_113
*1182 FILLER_1_131
*1183 FILLER_1_140
*1184 FILLER_1_148
*1185 FILLER_1_166
*1186 FILLER_1_169
*1187 FILLER_1_173
*1188 FILLER_1_190
*1189 FILLER_1_210
*1190 FILLER_1_217
*1191 FILLER_1_223
*1192 FILLER_1_225
*1193 FILLER_1_237
*1194 FILLER_1_249
*1195 FILLER_1_261
*1196 FILLER_1_273
*1197 FILLER_1_279
*1198 FILLER_1_281
*1199 FILLER_1_293
*1200 FILLER_1_3
*1201 FILLER_1_34
*1202 FILLER_1_54
*1203 FILLER_1_57
*1204 FILLER_1_64
*1205 FILLER_1_88
*1206 FILLER_1_99
*1207 FILLER_20_117
*1208 FILLER_20_123
*1209 FILLER_20_131
*1210 FILLER_20_138
*1211 FILLER_20_141
*1212 FILLER_20_15
*1213 FILLER_20_152
*1214 FILLER_20_156
*1215 FILLER_20_165
*1216 FILLER_20_185
*1217 FILLER_20_193
*1218 FILLER_20_197
*1219 FILLER_20_217
*1220 FILLER_20_225
*1221 FILLER_20_234
*1222 FILLER_20_24
*1223 FILLER_20_246
*1224 FILLER_20_253
*1225 FILLER_20_265
*1226 FILLER_20_277
*1227 FILLER_20_289
*1228 FILLER_20_29
*1229 FILLER_20_297
*1230 FILLER_20_3
*1231 FILLER_20_40
*1232 FILLER_20_49
*1233 FILLER_20_57
*1234 FILLER_20_64
*1235 FILLER_20_72
*1236 FILLER_20_79
*1237 FILLER_20_83
*1238 FILLER_20_85
*1239 FILLER_20_91
*1240 FILLER_20_97
*1241 FILLER_21_102
*1242 FILLER_21_110
*1243 FILLER_21_113
*1244 FILLER_21_124
*1245 FILLER_21_134
*1246 FILLER_21_146
*1247 FILLER_21_158
*1248 FILLER_21_166
*1249 FILLER_21_169
*1250 FILLER_21_179
*1251 FILLER_21_188
*1252 FILLER_21_204
*1253 FILLER_21_21
*1254 FILLER_21_217
*1255 FILLER_21_223
*1256 FILLER_21_225
*1257 FILLER_21_243
*1258 FILLER_21_255
*1259 FILLER_21_267
*1260 FILLER_21_27
*1261 FILLER_21_279
*1262 FILLER_21_281
*1263 FILLER_21_293
*1264 FILLER_21_3
*1265 FILLER_21_32
*1266 FILLER_21_40
*1267 FILLER_21_50
*1268 FILLER_21_57
*1269 FILLER_21_68
*1270 FILLER_21_8
*1271 FILLER_21_82
*1272 FILLER_21_90
*1273 FILLER_22_103
*1274 FILLER_22_112
*1275 FILLER_22_132
*1276 FILLER_22_141
*1277 FILLER_22_160
*1278 FILLER_22_168
*1279 FILLER_22_188
*1280 FILLER_22_197
*1281 FILLER_22_204
*1282 FILLER_22_21
*1283 FILLER_22_212
*1284 FILLER_22_234
*1285 FILLER_22_241
*1286 FILLER_22_249
*1287 FILLER_22_253
*1288 FILLER_22_265
*1289 FILLER_22_27
*1290 FILLER_22_277
*1291 FILLER_22_289
*1292 FILLER_22_29
*1293 FILLER_22_297
*1294 FILLER_22_3
*1295 FILLER_22_37
*1296 FILLER_22_57
*1297 FILLER_22_63
*1298 FILLER_22_70
*1299 FILLER_22_82
*1300 FILLER_22_85
*1301 FILLER_22_93
*1302 FILLER_22_97
*1303 FILLER_23_11
*1304 FILLER_23_110
*1305 FILLER_23_113
*1306 FILLER_23_135
*1307 FILLER_23_143
*1308 FILLER_23_150
*1309 FILLER_23_159
*1310 FILLER_23_166
*1311 FILLER_23_169
*1312 FILLER_23_173
*1313 FILLER_23_181
*1314 FILLER_23_19
*1315 FILLER_23_193
*1316 FILLER_23_213
*1317 FILLER_23_221
*1318 FILLER_23_225
*1319 FILLER_23_234
*1320 FILLER_23_246
*1321 FILLER_23_258
*1322 FILLER_23_270
*1323 FILLER_23_278
*1324 FILLER_23_281
*1325 FILLER_23_293
*1326 FILLER_23_3
*1327 FILLER_23_37
*1328 FILLER_23_45
*1329 FILLER_23_53
*1330 FILLER_23_57
*1331 FILLER_23_70
*1332 FILLER_23_79
*1333 FILLER_23_89
*1334 FILLER_23_93
*1335 FILLER_24_100
*1336 FILLER_24_109
*1337 FILLER_24_118
*1338 FILLER_24_129
*1339 FILLER_24_133
*1340 FILLER_24_138
*1341 FILLER_24_141
*1342 FILLER_24_15
*1343 FILLER_24_152
*1344 FILLER_24_172
*1345 FILLER_24_184
*1346 FILLER_24_193
*1347 FILLER_24_197
*1348 FILLER_24_210
*1349 FILLER_24_219
*1350 FILLER_24_239
*1351 FILLER_24_24
*1352 FILLER_24_246
*1353 FILLER_24_253
*1354 FILLER_24_265
*1355 FILLER_24_277
*1356 FILLER_24_289
*1357 FILLER_24_29
*1358 FILLER_24_297
*1359 FILLER_24_3
*1360 FILLER_24_36
*1361 FILLER_24_44
*1362 FILLER_24_52
*1363 FILLER_24_59
*1364 FILLER_24_68
*1365 FILLER_24_78
*1366 FILLER_24_85
*1367 FILLER_24_91
*1368 FILLER_25_104
*1369 FILLER_25_113
*1370 FILLER_25_118
*1371 FILLER_25_129
*1372 FILLER_25_149
*1373 FILLER_25_163
*1374 FILLER_25_167
*1375 FILLER_25_169
*1376 FILLER_25_188
*1377 FILLER_25_204
*1378 FILLER_25_208
*1379 FILLER_25_21
*1380 FILLER_25_216
*1381 FILLER_25_225
*1382 FILLER_25_234
*1383 FILLER_25_246
*1384 FILLER_25_258
*1385 FILLER_25_270
*1386 FILLER_25_278
*1387 FILLER_25_281
*1388 FILLER_25_293
*1389 FILLER_25_3
*1390 FILLER_25_30
*1391 FILLER_25_38
*1392 FILLER_25_49
*1393 FILLER_25_55
*1394 FILLER_25_57
*1395 FILLER_25_61
*1396 FILLER_25_67
*1397 FILLER_25_82
*1398 FILLER_26_100
*1399 FILLER_26_120
*1400 FILLER_26_131
*1401 FILLER_26_138
*1402 FILLER_26_141
*1403 FILLER_26_151
*1404 FILLER_26_160
*1405 FILLER_26_168
*1406 FILLER_26_175
*1407 FILLER_26_183
*1408 FILLER_26_194
*1409 FILLER_26_197
*1410 FILLER_26_20
*1411 FILLER_26_217
*1412 FILLER_26_223
*1413 FILLER_26_240
*1414 FILLER_26_247
*1415 FILLER_26_251
*1416 FILLER_26_253
*1417 FILLER_26_265
*1418 FILLER_26_277
*1419 FILLER_26_289
*1420 FILLER_26_29
*1421 FILLER_26_297
*1422 FILLER_26_3
*1423 FILLER_26_53
*1424 FILLER_26_66
*1425 FILLER_26_81
*1426 FILLER_26_85
*1427 FILLER_27_102
*1428 FILLER_27_109
*1429 FILLER_27_11
*1430 FILLER_27_113
*1431 FILLER_27_117
*1432 FILLER_27_127
*1433 FILLER_27_133
*1434 FILLER_27_138
*1435 FILLER_27_146
*1436 FILLER_27_154
*1437 FILLER_27_162
*1438 FILLER_27_169
*1439 FILLER_27_181
*1440 FILLER_27_19
*1441 FILLER_27_205
*1442 FILLER_27_211
*1443 FILLER_27_219
*1444 FILLER_27_223
*1445 FILLER_27_225
*1446 FILLER_27_243
*1447 FILLER_27_25
*1448 FILLER_27_250
*1449 FILLER_27_262
*1450 FILLER_27_274
*1451 FILLER_27_281
*1452 FILLER_27_293
*1453 FILLER_27_3
*1454 FILLER_27_33
*1455 FILLER_27_37
*1456 FILLER_27_43
*1457 FILLER_27_49
*1458 FILLER_27_54
*1459 FILLER_27_57
*1460 FILLER_27_64
*1461 FILLER_27_70
*1462 FILLER_27_75
*1463 FILLER_27_83
*1464 FILLER_27_94
*1465 FILLER_27_98
*1466 FILLER_28_105
*1467 FILLER_28_113
*1468 FILLER_28_118
*1469 FILLER_28_138
*1470 FILLER_28_141
*1471 FILLER_28_151
*1472 FILLER_28_161
*1473 FILLER_28_165
*1474 FILLER_28_182
*1475 FILLER_28_193
*1476 FILLER_28_197
*1477 FILLER_28_207
*1478 FILLER_28_21
*1479 FILLER_28_231
*1480 FILLER_28_242
*1481 FILLER_28_250
*1482 FILLER_28_253
*1483 FILLER_28_258
*1484 FILLER_28_27
*1485 FILLER_28_270
*1486 FILLER_28_282
*1487 FILLER_28_29
*1488 FILLER_28_294
*1489 FILLER_28_298
*1490 FILLER_28_3
*1491 FILLER_28_35
*1492 FILLER_28_41
*1493 FILLER_28_51
*1494 FILLER_28_59
*1495 FILLER_28_66
*1496 FILLER_28_78
*1497 FILLER_28_85
*1498 FILLER_28_91
*1499 FILLER_28_95
*1500 FILLER_29_106
*1501 FILLER_29_113
*1502 FILLER_29_124
*1503 FILLER_29_133
*1504 FILLER_29_14
*1505 FILLER_29_140
*1506 FILLER_29_151
*1507 FILLER_29_163
*1508 FILLER_29_167
*1509 FILLER_29_169
*1510 FILLER_29_179
*1511 FILLER_29_187
*1512 FILLER_29_205
*1513 FILLER_29_216
*1514 FILLER_29_225
*1515 FILLER_29_247
*1516 FILLER_29_259
*1517 FILLER_29_271
*1518 FILLER_29_279
*1519 FILLER_29_281
*1520 FILLER_29_293
*1521 FILLER_29_3
*1522 FILLER_29_34
*1523 FILLER_29_54
*1524 FILLER_29_57
*1525 FILLER_29_68
*1526 FILLER_29_77
*1527 FILLER_29_86
*1528 FILLER_2_100
*1529 FILLER_2_112
*1530 FILLER_2_122
*1531 FILLER_2_130
*1532 FILLER_2_138
*1533 FILLER_2_141
*1534 FILLER_2_155
*1535 FILLER_2_164
*1536 FILLER_2_178
*1537 FILLER_2_190
*1538 FILLER_2_197
*1539 FILLER_2_20
*1540 FILLER_2_202
*1541 FILLER_2_209
*1542 FILLER_2_216
*1543 FILLER_2_223
*1544 FILLER_2_235
*1545 FILLER_2_247
*1546 FILLER_2_251
*1547 FILLER_2_253
*1548 FILLER_2_265
*1549 FILLER_2_277
*1550 FILLER_2_289
*1551 FILLER_2_29
*1552 FILLER_2_297
*1553 FILLER_2_3
*1554 FILLER_2_40
*1555 FILLER_2_53
*1556 FILLER_2_66
*1557 FILLER_2_81
*1558 FILLER_2_85
*1559 FILLER_2_91
*1560 FILLER_30_106
*1561 FILLER_30_126
*1562 FILLER_30_138
*1563 FILLER_30_141
*1564 FILLER_30_15
*1565 FILLER_30_154
*1566 FILLER_30_162
*1567 FILLER_30_176
*1568 FILLER_30_188
*1569 FILLER_30_19
*1570 FILLER_30_197
*1571 FILLER_30_207
*1572 FILLER_30_213
*1573 FILLER_30_234
*1574 FILLER_30_245
*1575 FILLER_30_251
*1576 FILLER_30_253
*1577 FILLER_30_26
*1578 FILLER_30_265
*1579 FILLER_30_277
*1580 FILLER_30_289
*1581 FILLER_30_29
*1582 FILLER_30_297
*1583 FILLER_30_3
*1584 FILLER_30_40
*1585 FILLER_30_49
*1586 FILLER_30_60
*1587 FILLER_30_67
*1588 FILLER_30_80
*1589 FILLER_30_85
*1590 FILLER_30_9
*1591 FILLER_30_93
*1592 FILLER_31_104
*1593 FILLER_31_113
*1594 FILLER_31_117
*1595 FILLER_31_121
*1596 FILLER_31_128
*1597 FILLER_31_148
*1598 FILLER_31_159
*1599 FILLER_31_167
*1600 FILLER_31_169
*1601 FILLER_31_187
*1602 FILLER_31_195
*1603 FILLER_31_215
*1604 FILLER_31_22
*1605 FILLER_31_223
*1606 FILLER_31_225
*1607 FILLER_31_243
*1608 FILLER_31_255
*1609 FILLER_31_267
*1610 FILLER_31_279
*1611 FILLER_31_28
*1612 FILLER_31_281
*1613 FILLER_31_293
*1614 FILLER_31_3
*1615 FILLER_31_45
*1616 FILLER_31_54
*1617 FILLER_31_57
*1618 FILLER_31_70
*1619 FILLER_31_76
*1620 FILLER_31_81
*1621 FILLER_31_96
*1622 FILLER_32_116
*1623 FILLER_32_124
*1624 FILLER_32_130
*1625 FILLER_32_138
*1626 FILLER_32_141
*1627 FILLER_32_152
*1628 FILLER_32_163
*1629 FILLER_32_17
*1630 FILLER_32_173
*1631 FILLER_32_182
*1632 FILLER_32_193
*1633 FILLER_32_197
*1634 FILLER_32_208
*1635 FILLER_32_216
*1636 FILLER_32_223
*1637 FILLER_32_227
*1638 FILLER_32_231
*1639 FILLER_32_24
*1640 FILLER_32_243
*1641 FILLER_32_251
*1642 FILLER_32_253
*1643 FILLER_32_265
*1644 FILLER_32_277
*1645 FILLER_32_289
*1646 FILLER_32_29
*1647 FILLER_32_297
*1648 FILLER_32_3
*1649 FILLER_32_41
*1650 FILLER_32_65
*1651 FILLER_32_71
*1652 FILLER_32_80
*1653 FILLER_32_85
*1654 FILLER_32_89
*1655 FILLER_32_9
*1656 FILLER_32_95
*1657 FILLER_32_99
*1658 FILLER_33_105
*1659 FILLER_33_111
*1660 FILLER_33_113
*1661 FILLER_33_132
*1662 FILLER_33_141
*1663 FILLER_33_149
*1664 FILLER_33_166
*1665 FILLER_33_169
*1666 FILLER_33_179
*1667 FILLER_33_187
*1668 FILLER_33_205
*1669 FILLER_33_213
*1670 FILLER_33_222
*1671 FILLER_33_225
*1672 FILLER_33_24
*1673 FILLER_33_243
*1674 FILLER_33_255
*1675 FILLER_33_267
*1676 FILLER_33_279
*1677 FILLER_33_281
*1678 FILLER_33_293
*1679 FILLER_33_3
*1680 FILLER_33_33
*1681 FILLER_33_37
*1682 FILLER_33_41
*1683 FILLER_33_54
*1684 FILLER_33_57
*1685 FILLER_33_62
*1686 FILLER_33_7
*1687 FILLER_33_71
*1688 FILLER_33_80
*1689 FILLER_33_88
*1690 FILLER_34_106
*1691 FILLER_34_110
*1692 FILLER_34_114
*1693 FILLER_34_125
*1694 FILLER_34_138
*1695 FILLER_34_14
*1696 FILLER_34_141
*1697 FILLER_34_146
*1698 FILLER_34_158
*1699 FILLER_34_170
*1700 FILLER_34_190
*1701 FILLER_34_197
*1702 FILLER_34_207
*1703 FILLER_34_218
*1704 FILLER_34_227
*1705 FILLER_34_23
*1706 FILLER_34_234
*1707 FILLER_34_246
*1708 FILLER_34_253
*1709 FILLER_34_265
*1710 FILLER_34_27
*1711 FILLER_34_277
*1712 FILLER_34_289
*1713 FILLER_34_29
*1714 FILLER_34_297
*1715 FILLER_34_3
*1716 FILLER_34_34
*1717 FILLER_34_41
*1718 FILLER_34_61
*1719 FILLER_34_74
*1720 FILLER_34_82
*1721 FILLER_34_85
*1722 FILLER_34_93
*1723 FILLER_35_100
*1724 FILLER_35_107
*1725 FILLER_35_111
*1726 FILLER_35_113
*1727 FILLER_35_124
*1728 FILLER_35_135
*1729 FILLER_35_143
*1730 FILLER_35_161
*1731 FILLER_35_167
*1732 FILLER_35_169
*1733 FILLER_35_182
*1734 FILLER_35_202
*1735 FILLER_35_21
*1736 FILLER_35_222
*1737 FILLER_35_225
*1738 FILLER_35_243
*1739 FILLER_35_255
*1740 FILLER_35_267
*1741 FILLER_35_279
*1742 FILLER_35_281
*1743 FILLER_35_29
*1744 FILLER_35_293
*1745 FILLER_35_3
*1746 FILLER_35_40
*1747 FILLER_35_44
*1748 FILLER_35_54
*1749 FILLER_35_57
*1750 FILLER_35_74
*1751 FILLER_35_85
*1752 FILLER_36_106
*1753 FILLER_36_126
*1754 FILLER_36_130
*1755 FILLER_36_138
*1756 FILLER_36_141
*1757 FILLER_36_155
*1758 FILLER_36_16
*1759 FILLER_36_162