*SPEF "ieee 1481-1999"
*DESIGN "cpldcpu_MCPU5plus"
*DATE "11:11:11 Fri 11 11, 1111"
*VENDOR "OpenRCX"
*PROGRAM "Parallel Extraction"
*VERSION "1.0"
*DESIGN_FLOW "NAME_SCOPE LOCAL" "PIN_CAP NONE"
*DIVIDER /
*DELIMITER :
*BUS_DELIMITER []
*T_UNIT 1 NS
*C_UNIT 1 PF
*R_UNIT 1 OHM
*L_UNIT 1 HENRY

*NAME_MAP
*1 io_in[0]
*2 io_in[1]
*3 io_in[2]
*4 io_in[3]
*5 io_in[4]
*6 io_in[5]
*7 io_in[6]
*8 io_in[7]
*9 io_out[0]
*10 io_out[1]
*11 io_out[2]
*12 io_out[3]
*13 io_out[4]
*14 io_out[5]
*15 io_out[6]
*16 io_out[7]
*19 MCPU5plus_top\.accu\[0\]
*20 MCPU5plus_top\.accu\[1\]
*21 MCPU5plus_top\.accu\[2\]
*22 MCPU5plus_top\.accu\[3\]
*23 MCPU5plus_top\.accu\[4\]
*24 MCPU5plus_top\.accu\[5\]
*25 MCPU5plus_top\.accu\[6\]
*26 MCPU5plus_top\.accu\[7\]
*27 MCPU5plus_top\.accu\[8\]
*28 MCPU5plus_top\.iflag
*29 MCPU5plus_top\.pc\[0\]
*30 MCPU5plus_top\.pc\[1\]
*31 MCPU5plus_top\.pc\[2\]
*32 MCPU5plus_top\.pc\[3\]
*33 MCPU5plus_top\.pc\[4\]
*34 MCPU5plus_top\.pc\[5\]
*35 MCPU5plus_top\.pc\[6\]
*36 MCPU5plus_top\.pc\[7\]
*37 MCPU5plus_top\.regfile\[0\]\[0\]
*38 MCPU5plus_top\.regfile\[0\]\[1\]
*39 MCPU5plus_top\.regfile\[0\]\[2\]
*40 MCPU5plus_top\.regfile\[0\]\[3\]
*41 MCPU5plus_top\.regfile\[0\]\[4\]
*42 MCPU5plus_top\.regfile\[0\]\[5\]
*43 MCPU5plus_top\.regfile\[0\]\[6\]
*44 MCPU5plus_top\.regfile\[0\]\[7\]
*45 MCPU5plus_top\.regfile\[1\]\[0\]
*46 MCPU5plus_top\.regfile\[1\]\[1\]
*47 MCPU5plus_top\.regfile\[1\]\[2\]
*48 MCPU5plus_top\.regfile\[1\]\[3\]
*49 MCPU5plus_top\.regfile\[1\]\[4\]
*50 MCPU5plus_top\.regfile\[1\]\[5\]
*51 MCPU5plus_top\.regfile\[1\]\[6\]
*52 MCPU5plus_top\.regfile\[1\]\[7\]
*53 MCPU5plus_top\.regfile\[2\]\[0\]
*54 MCPU5plus_top\.regfile\[2\]\[1\]
*55 MCPU5plus_top\.regfile\[2\]\[2\]
*56 MCPU5plus_top\.regfile\[2\]\[3\]
*57 MCPU5plus_top\.regfile\[2\]\[4\]
*58 MCPU5plus_top\.regfile\[2\]\[5\]
*59 MCPU5plus_top\.regfile\[2\]\[6\]
*60 MCPU5plus_top\.regfile\[2\]\[7\]
*61 MCPU5plus_top\.regfile\[3\]\[0\]
*62 MCPU5plus_top\.regfile\[3\]\[1\]
*63 MCPU5plus_top\.regfile\[3\]\[2\]
*64 MCPU5plus_top\.regfile\[3\]\[3\]
*65 MCPU5plus_top\.regfile\[3\]\[4\]
*66 MCPU5plus_top\.regfile\[3\]\[5\]
*67 MCPU5plus_top\.regfile\[3\]\[6\]
*68 MCPU5plus_top\.regfile\[3\]\[7\]
*69 MCPU5plus_top\.regfile\[4\]\[0\]
*70 MCPU5plus_top\.regfile\[4\]\[1\]
*71 MCPU5plus_top\.regfile\[4\]\[2\]
*72 MCPU5plus_top\.regfile\[4\]\[3\]
*73 MCPU5plus_top\.regfile\[4\]\[4\]
*74 MCPU5plus_top\.regfile\[4\]\[5\]
*75 MCPU5plus_top\.regfile\[4\]\[6\]
*76 MCPU5plus_top\.regfile\[4\]\[7\]
*77 MCPU5plus_top\.regfile\[5\]\[0\]
*78 MCPU5plus_top\.regfile\[5\]\[1\]
*79 MCPU5plus_top\.regfile\[5\]\[2\]
*80 MCPU5plus_top\.regfile\[5\]\[3\]
*81 MCPU5plus_top\.regfile\[5\]\[4\]
*82 MCPU5plus_top\.regfile\[5\]\[5\]
*83 MCPU5plus_top\.regfile\[5\]\[6\]
*84 MCPU5plus_top\.regfile\[5\]\[7\]
*85 MCPU5plus_top\.regfile\[6\]\[0\]
*86 MCPU5plus_top\.regfile\[6\]\[1\]
*87 MCPU5plus_top\.regfile\[6\]\[2\]
*88 MCPU5plus_top\.regfile\[6\]\[3\]
*89 MCPU5plus_top\.regfile\[6\]\[4\]
*90 MCPU5plus_top\.regfile\[6\]\[5\]
*91 MCPU5plus_top\.regfile\[6\]\[6\]
*92 MCPU5plus_top\.regfile\[6\]\[7\]
*93 MCPU5plus_top\.regfile\[7\]\[0\]
*94 MCPU5plus_top\.regfile\[7\]\[1\]
*95 MCPU5plus_top\.regfile\[7\]\[2\]
*96 MCPU5plus_top\.regfile\[7\]\[3\]
*97 MCPU5plus_top\.regfile\[7\]\[4\]
*98 MCPU5plus_top\.regfile\[7\]\[5\]
*99 MCPU5plus_top\.regfile\[7\]\[6\]
*100 MCPU5plus_top\.regfile\[7\]\[7\]
*101 _000_
*102 _001_
*103 _002_
*104 _003_
*105 _004_
*106 _005_
*107 _006_
*108 _007_
*109 _008_
*110 _009_
*111 _010_
*112 _011_
*113 _012_
*114 _013_
*115 _014_
*116 _015_
*117 _016_
*118 _017_
*119 _018_
*120 _019_
*121 _020_
*122 _021_
*123 _022_
*124 _023_
*125 _024_
*126 _025_
*127 _026_
*128 _027_
*129 _028_
*130 _029_
*131 _030_
*132 _031_
*133 _032_
*134 _033_
*135 _034_
*136 _035_
*137 _036_
*138 _037_
*139 _038_
*140 _039_
*141 _040_
*142 _041_
*143 _042_
*144 _043_
*145 _044_
*146 _045_
*147 _046_
*148 _047_
*149 _048_
*150 _049_
*151 _050_
*152 _051_
*153 _052_
*154 _053_
*155 _054_
*156 _055_
*157 _056_
*158 _057_
*159 _058_
*160 _059_
*161 _060_
*162 _061_
*163 _062_
*164 _063_
*165 _064_
*166 _065_
*167 _066_
*168 _067_
*169 _068_
*170 _069_
*171 _070_
*172 _071_
*173 _072_
*174 _073_
*175 _074_
*176 _075_
*177 _076_
*178 _077_
*179 _078_
*180 _079_
*181 _080_
*182 _081_
*183 _082_
*184 _083_
*185 _084_
*186 _085_
*187 _086_
*188 _087_
*189 _088_
*190 _089_
*191 _090_
*192 _091_
*193 _092_
*194 _093_
*195 _094_
*196 _095_
*197 _096_
*198 _097_
*199 _098_
*200 _099_
*201 _100_
*202 _101_
*203 _102_
*204 _103_
*205 _104_
*206 _105_
*207 _106_
*208 _107_
*209 _108_
*210 _109_
*211 _110_
*212 _111_
*213 _112_
*214 _113_
*215 _114_
*216 _115_
*217 _116_
*218 _117_
*219 _118_
*220 _119_
*221 _120_
*222 _121_
*223 _122_
*224 _123_
*225 _124_
*226 _125_
*227 _126_
*228 _127_
*229 _128_
*230 _129_
*231 _130_
*232 _131_
*233 _132_
*234 _133_
*235 _134_
*236 _135_
*237 _136_
*238 _137_
*239 _138_
*240 _139_
*241 _140_
*242 _141_
*243 _142_
*244 _143_
*245 _144_
*246 _145_
*247 _146_
*248 _147_
*249 _148_
*250 _149_
*251 _150_
*252 _151_
*253 _152_
*254 _153_
*255 _154_
*256 _155_
*257 _156_
*258 _157_
*259 _158_
*260 _159_
*261 _160_
*262 _161_
*263 _162_
*264 _163_
*265 _164_
*266 _165_
*267 _166_
*268 _167_
*269 _168_
*270 _169_
*271 _170_
*272 _171_
*273 _172_
*274 _173_
*275 _174_
*276 _175_
*277 _176_
*278 _177_
*279 _178_
*280 _179_
*281 _180_
*282 _181_
*283 _182_
*284 _183_
*285 _184_
*286 _185_
*287 _186_
*288 _187_
*289 _188_
*290 _189_
*291 _190_
*292 _191_
*293 _192_
*294 _193_
*295 _194_
*296 _195_
*297 _196_
*298 _197_
*299 _198_
*300 _199_
*301 _200_
*302 _201_
*303 _202_
*304 _203_
*305 _204_
*306 _205_
*307 _206_
*308 _207_
*309 _208_
*310 _209_
*311 _210_
*312 _211_
*313 _212_
*314 _213_
*315 _214_
*316 _215_
*317 _216_
*318 _217_
*319 _218_
*320 _219_
*321 _220_
*322 _221_
*323 _222_
*324 _223_
*325 _224_
*326 _225_
*327 _226_
*328 _227_
*329 _228_
*330 _229_
*331 _230_
*332 _231_
*333 _232_
*334 _233_
*335 _234_
*336 _235_
*337 _236_
*338 _237_
*339 _238_
*340 _239_
*341 _240_
*342 _241_
*343 _242_
*344 _243_
*345 _244_
*346 _245_
*347 _246_
*348 _247_
*349 _248_
*350 _249_
*351 _250_
*352 _251_
*353 _252_
*354 _253_
*355 _254_
*356 _255_
*357 _256_
*358 _257_
*359 _258_
*360 _259_
*361 _260_
*362 _261_
*363 clknet_0__000_
*364 clknet_0__001_
*365 clknet_0__002_
*366 clknet_0__003_
*367 clknet_0__004_
*368 clknet_0__005_
*369 clknet_0__006_
*370 clknet_0__007_
*371 clknet_0__032_
*372 clknet_0_io_in[0]
*373 clknet_1_0__leaf__000_
*374 clknet_1_0__leaf__001_
*375 clknet_1_0__leaf__002_
*376 clknet_1_0__leaf__003_
*377 clknet_1_0__leaf__004_
*378 clknet_1_0__leaf__005_
*379 clknet_1_0__leaf__006_
*380 clknet_1_0__leaf__007_
*381 clknet_1_0__leaf__032_
*382 clknet_1_0__leaf_io_in[0]
*383 clknet_1_1__leaf__000_
*384 clknet_1_1__leaf__001_
*385 clknet_1_1__leaf__002_
*386 clknet_1_1__leaf__003_
*387 clknet_1_1__leaf__004_
*388 clknet_1_1__leaf__005_
*389 clknet_1_1__leaf__006_
*390 clknet_1_1__leaf__007_
*391 clknet_1_1__leaf__032_
*392 clknet_1_1__leaf_io_in[0]
*393 net1
*394 net10
*395 net11
*396 net12
*397 net13
*398 net14
*399 net15
*400 net16
*401 net17
*402 net18
*403 net19
*404 net2
*405 net20
*406 net21
*407 net22
*408 net23
*409 net24
*410 net25
*411 net26
*412 net27
*413 net28
*414 net29
*415 net3
*416 net30
*417 net31
*418 net32
*419 net33
*420 net34
*421 net35
*422 net36
*423 net37
*424 net38
*425 net4
*426 net5
*427 net6
*428 net7
*429 net8
*430 net9
*431 FILLER_0_109
*432 FILLER_0_113
*433 FILLER_0_125
*434 FILLER_0_137
*435 FILLER_0_141
*436 FILLER_0_15
*437 FILLER_0_153
*438 FILLER_0_165
*439 FILLER_0_169
*440 FILLER_0_181
*441 FILLER_0_193
*442 FILLER_0_197
*443 FILLER_0_209
*444 FILLER_0_221
*445 FILLER_0_225
*446 FILLER_0_237
*447 FILLER_0_249
*448 FILLER_0_253
*449 FILLER_0_265
*450 FILLER_0_27
*451 FILLER_0_277
*452 FILLER_0_281
*453 FILLER_0_29
*454 FILLER_0_293
*455 FILLER_0_3
*456 FILLER_0_41
*457 FILLER_0_53
*458 FILLER_0_57
*459 FILLER_0_69
*460 FILLER_0_81
*461 FILLER_0_85
*462 FILLER_0_97
*463 FILLER_10_108
*464 FILLER_10_119
*465 FILLER_10_128
*466 FILLER_10_141
*467 FILLER_10_153
*468 FILLER_10_165
*469 FILLER_10_177
*470 FILLER_10_18
*471 FILLER_10_189
*472 FILLER_10_195
*473 FILLER_10_197
*474 FILLER_10_209
*475 FILLER_10_221
*476 FILLER_10_233
*477 FILLER_10_245
*478 FILLER_10_251
*479 FILLER_10_253
*480 FILLER_10_26
*481 FILLER_10_265
*482 FILLER_10_277
*483 FILLER_10_289
*484 FILLER_10_29
*485 FILLER_10_297
*486 FILLER_10_3
*487 FILLER_10_41
*488 FILLER_10_65
*489 FILLER_10_69
*490 FILLER_10_82
*491 FILLER_10_85
*492 FILLER_10_92
*493 FILLER_11_109
*494 FILLER_11_113
*495 FILLER_11_121
*496 FILLER_11_133
*497 FILLER_11_14
*498 FILLER_11_145
*499 FILLER_11_157
*500 FILLER_11_165
*501 FILLER_11_169
*502 FILLER_11_181
*503 FILLER_11_193
*504 FILLER_11_205
*505 FILLER_11_217
*506 FILLER_11_223
*507 FILLER_11_225
*508 FILLER_11_237
*509 FILLER_11_249
*510 FILLER_11_261
*511 FILLER_11_273
*512 FILLER_11_279
*513 FILLER_11_281
*514 FILLER_11_293
*515 FILLER_11_3
*516 FILLER_11_38
*517 FILLER_11_54
*518 FILLER_11_57
*519 FILLER_11_68
*520 FILLER_11_72
*521 FILLER_11_93
*522 FILLER_12_111
*523 FILLER_12_122
*524 FILLER_12_134
*525 FILLER_12_141
*526 FILLER_12_153
*527 FILLER_12_165
*528 FILLER_12_177
*529 FILLER_12_189
*530 FILLER_12_195
*531 FILLER_12_197
*532 FILLER_12_209
*533 FILLER_12_221
*534 FILLER_12_233
*535 FILLER_12_245
*536 FILLER_12_25
*537 FILLER_12_251
*538 FILLER_12_253
*539 FILLER_12_265
*540 FILLER_12_277
*541 FILLER_12_289
*542 FILLER_12_29
*543 FILLER_12_297
*544 FILLER_12_3
*545 FILLER_12_41
*546 FILLER_12_65
*547 FILLER_12_69
*548 FILLER_12_82
*549 FILLER_12_85
*550 FILLER_13_109
*551 FILLER_13_113
*552 FILLER_13_122
*553 FILLER_13_130
*554 FILLER_13_142
*555 FILLER_13_154
*556 FILLER_13_166
*557 FILLER_13_169
*558 FILLER_13_17
*559 FILLER_13_181
*560 FILLER_13_193
*561 FILLER_13_205
*562 FILLER_13_217
*563 FILLER_13_223
*564 FILLER_13_225
*565 FILLER_13_237
*566 FILLER_13_249
*567 FILLER_13_261
*568 FILLER_13_273
*569 FILLER_13_279
*570 FILLER_13_281
*571 FILLER_13_293
*572 FILLER_13_3
*573 FILLER_13_33
*574 FILLER_13_52
*575 FILLER_13_57
*576 FILLER_13_61
*577 FILLER_13_74
*578 FILLER_13_90
*579 FILLER_13_96
*580 FILLER_14_112
*581 FILLER_14_123
*582 FILLER_14_135
*583 FILLER_14_139
*584 FILLER_14_141
*585 FILLER_14_153
*586 FILLER_14_165
*587 FILLER_14_177
*588 FILLER_14_189
*589 FILLER_14_195
*590 FILLER_14_197
*591 FILLER_14_20
*592 FILLER_14_209
*593 FILLER_14_221
*594 FILLER_14_233
*595 FILLER_14_245
*596 FILLER_14_251
*597 FILLER_14_253
*598 FILLER_14_265
*599 FILLER_14_277
*600 FILLER_14_289
*601 FILLER_14_29
*602 FILLER_14_297
*603 FILLER_14_3
*604 FILLER_14_40
*605 FILLER_14_59
*606 FILLER_14_7
*607 FILLER_14_75
*608 FILLER_14_82
*609 FILLER_14_85
*610 FILLER_14_95
*611 FILLER_14_99
*612 FILLER_15_109
*613 FILLER_15_113
*614 FILLER_15_122
*615 FILLER_15_131
*616 FILLER_15_140
*617 FILLER_15_152
*618 FILLER_15_164
*619 FILLER_15_169
*620 FILLER_15_18
*621 FILLER_15_181
*622 FILLER_15_193
*623 FILLER_15_205
*624 FILLER_15_217
*625 FILLER_15_223
*626 FILLER_15_225
*627 FILLER_15_237
*628 FILLER_15_249
*629 FILLER_15_261
*630 FILLER_15_273
*631 FILLER_15_279
*632 FILLER_15_281
*633 FILLER_15_293
*634 FILLER_15_3
*635 FILLER_15_38
*636 FILLER_15_54
*637 FILLER_15_57
*638 FILLER_15_69
*639 FILLER_15_93
*640 FILLER_16_121
*641 FILLER_16_131
*642 FILLER_16_139
*643 FILLER_16_141
*644 FILLER_16_153
*645 FILLER_16_165
*646 FILLER_16_177
*647 FILLER_16_189
*648 FILLER_16_195
*649 FILLER_16_197
*650 FILLER_16_209
*651 FILLER_16_221
*652 FILLER_16_233
*653 FILLER_16_245
*654 FILLER_16_25
*655 FILLER_16_251
*656 FILLER_16_253
*657 FILLER_16_265
*658 FILLER_16_277
*659 FILLER_16_289
*660 FILLER_16_29
*661 FILLER_16_297
*662 FILLER_16_3
*663 FILLER_16_39
*664 FILLER_16_43
*665 FILLER_16_56
*666 FILLER_16_80
*667 FILLER_16_85
*668 FILLER_16_9
*669 FILLER_16_95
*670 FILLER_17_110
*671 FILLER_17_113
*672 FILLER_17_122
*673 FILLER_17_133
*674 FILLER_17_145
*675 FILLER_17_157
*676 FILLER_17_165
*677 FILLER_17_169
*678 FILLER_17_181
*679 FILLER_17_193
*680 FILLER_17_205
*681 FILLER_17_217
*682 FILLER_17_223
*683 FILLER_17_225
*684 FILLER_17_237
*685 FILLER_17_249
*686 FILLER_17_261
*687 FILLER_17_273
*688 FILLER_17_279
*689 FILLER_17_281
*690 FILLER_17_293
*691 FILLER_17_3
*692 FILLER_17_30
*693 FILLER_17_54
*694 FILLER_17_57
*695 FILLER_17_75
*696 FILLER_17_9
*697 FILLER_17_99
*698 FILLER_18_109
*699 FILLER_18_120
*700 FILLER_18_131
*701 FILLER_18_139
*702 FILLER_18_141
*703 FILLER_18_153
*704 FILLER_18_165
*705 FILLER_18_17
*706 FILLER_18_177
*707 FILLER_18_189
*708 FILLER_18_195
*709 FILLER_18_197
*710 FILLER_18_209
*711 FILLER_18_221
*712 FILLER_18_233
*713 FILLER_18_245
*714 FILLER_18_251
*715 FILLER_18_253
*716 FILLER_18_26
*717 FILLER_18_265
*718 FILLER_18_277
*719 FILLER_18_289
*720 FILLER_18_29
*721 FILLER_18_297
*722 FILLER_18_3
*723 FILLER_18_41
*724 FILLER_18_65
*725 FILLER_18_69
*726 FILLER_18_82
*727 FILLER_18_85
*728 FILLER_18_93
*729 FILLER_19_105
*730 FILLER_19_111
*731 FILLER_19_113
*732 FILLER_19_122
*733 FILLER_19_134
*734 FILLER_19_146
*735 FILLER_19_158
*736 FILLER_19_166
*737 FILLER_19_169
*738 FILLER_19_17
*739 FILLER_19_181
*740 FILLER_19_193
*741 FILLER_19_205
*742 FILLER_19_217
*743 FILLER_19_223
*744 FILLER_19_225
*745 FILLER_19_237
*746 FILLER_19_249
*747 FILLER_19_261
*748 FILLER_19_273
*749 FILLER_19_279
*750 FILLER_19_281
*751 FILLER_19_293
*752 FILLER_19_3
*753 FILLER_19_33
*754 FILLER_19_49
*755 FILLER_19_55
*756 FILLER_19_57
*757 FILLER_19_71
*758 FILLER_19_89
*759 FILLER_1_105
*760 FILLER_1_111
*761 FILLER_1_113
*762 FILLER_1_125
*763 FILLER_1_137
*764 FILLER_1_149
*765 FILLER_1_15
*766 FILLER_1_161
*767 FILLER_1_167
*768 FILLER_1_169
*769 FILLER_1_181
*770 FILLER_1_193
*771 FILLER_1_205
*772 FILLER_1_217
*773 FILLER_1_223
*774 FILLER_1_225
*775 FILLER_1_237
*776 FILLER_1_249
*777 FILLER_1_261
*778 FILLER_1_27
*779 FILLER_1_273
*780 FILLER_1_279
*781 FILLER_1_281
*782 FILLER_1_293
*783 FILLER_1_3
*784 FILLER_1_39
*785 FILLER_1_51
*786 FILLER_1_55
*787 FILLER_1_57
*788 FILLER_1_69
*789 FILLER_1_81
*790 FILLER_1_93
*791 FILLER_20_107
*792 FILLER_20_117
*793 FILLER_20_129
*794 FILLER_20_137
*795 FILLER_20_141
*796 FILLER_20_153
*797 FILLER_20_165
*798 FILLER_20_17
*799 FILLER_20_177
*800 FILLER_20_189
*801 FILLER_20_195
*802 FILLER_20_197
*803 FILLER_20_209
*804 FILLER_20_221
*805 FILLER_20_233
*806 FILLER_20_245
*807 FILLER_20_251
*808 FILLER_20_253
*809 FILLER_20_26
*810 FILLER_20_265
*811 FILLER_20_277
*812 FILLER_20_289
*813 FILLER_20_29
*814 FILLER_20_297
*815 FILLER_20_3
*816 FILLER_20_33
*817 FILLER_20_41
*818 FILLER_20_65
*819 FILLER_20_81
*820 FILLER_20_85
*821 FILLER_20_99
*822 FILLER_21_109
*823 FILLER_21_11
*824 FILLER_21_113
*825 FILLER_21_118
*826 FILLER_21_130
*827 FILLER_21_142
*828 FILLER_21_154
*829 FILLER_21_166
*830 FILLER_21_169
*831 FILLER_21_181
*832 FILLER_21_193
*833 FILLER_21_205
*834 FILLER_21_217
*835 FILLER_21_223
*836 FILLER_21_225
*837 FILLER_21_237
*838 FILLER_21_249
*839 FILLER_21_261
*840 FILLER_21_273
*841 FILLER_21_279
*842 FILLER_21_281
*843 FILLER_21_293
*844 FILLER_21_3
*845 FILLER_21_35
*846 FILLER_21_51
*847 FILLER_21_55
*848 FILLER_21_57
*849 FILLER_21_61
*850 FILLER_21_69
*851 FILLER_21_93
*852 FILLER_22_107
*853 FILLER_22_118
*854 FILLER_22_130
*855 FILLER_22_138
*856 FILLER_22_141
*857 FILLER_22_153
*858 FILLER_22_165
*859 FILLER_22_177
*860 FILLER_22_189
*861 FILLER_22_195
*862 FILLER_22_197
*863 FILLER_22_209
*864 FILLER_22_221
*865 FILLER_22_233
*866 FILLER_22_245
*867 FILLER_22_25
*868 FILLER_22_251
*869 FILLER_22_253
*870 FILLER_22_265
*871 FILLER_22_277
*872 FILLER_22_289
*873 FILLER_22_29
*874 FILLER_22_297
*875 FILLER_22_3
*876 FILLER_22_39
*877 FILLER_22_47
*878 FILLER_22_68
*879 FILLER_22_81
*880 FILLER_22_85
*881 FILLER_22_91
*882 FILLER_23_110
*883 FILLER_23_113
*884 FILLER_23_118
*885 FILLER_23_130
*886 FILLER_23_142
*887 FILLER_23_154
*888 FILLER_23_166
*889 FILLER_23_169
*890 FILLER_23_181
*891 FILLER_23_193
*892 FILLER_23_205
*893 FILLER_23_217
*894 FILLER_23_223
*895 FILLER_23_225
*896 FILLER_23_237
*897 FILLER_23_249
*898 FILLER_23_25
*899 FILLER_23_261
*900 FILLER_23_273
*901 FILLER_23_279
*902 FILLER_23_281
*903 FILLER_23_293
*904 FILLER_23_3
*905 FILLER_23_33
*906 FILLER_23_49
*907 FILLER_23_55
*908 FILLER_23_57
*909 FILLER_23_71
*910 FILLER_23_83
*911 FILLER_23_89
*912 FILLER_23_9
*913 FILLER_24_125
*914 FILLER_24_137
*915 FILLER_24_141
*916 FILLER_24_153
*917 FILLER_24_165
*918 FILLER_24_17
*919 FILLER_24_177
*920 FILLER_24_189
*921 FILLER_24_195
*922 FILLER_24_197
*923 FILLER_24_209
*924 FILLER_24_221
*925 FILLER_24_233
*926 FILLER_24_245
*927 FILLER_24_251
*928 FILLER_24_253
*929 FILLER_24_26
*930 FILLER_24_265
*931 FILLER_24_277
*932 FILLER_24_289
*933 FILLER_24_29
*934 FILLER_24_297
*935 FILLER_24_3
*936 FILLER_24_40
*937 FILLER_24_56
*938 FILLER_24_65
*939 FILLER_24_77
*940 FILLER_24_83
*941 FILLER_24_85
*942 FILLER_24_99
*943 FILLER_25_107
*944 FILLER_25_111
*945 FILLER_25_113
*946 FILLER_25_120
*947 FILLER_25_127
*948 FILLER_25_13
*949 FILLER_25_139
*950 FILLER_25_151
*951 FILLER_25_163
*952 FILLER_25_167
*953 FILLER_25_169
*954 FILLER_25_181
*955 FILLER_25_193
*956 FILLER_25_205
*957 FILLER_25_217
*958 FILLER_25_223
*959 FILLER_25_225
*960 FILLER_25_237
*961 FILLER_25_24
*962 FILLER_25_249
*963 FILLER_25_261
*964 FILLER_25_273
*965 FILLER_25_279
*966 FILLER_25_28
*967 FILLER_25_281
*968 FILLER_25_293
*969 FILLER_25_3
*970 FILLER_25_36
*971 FILLER_25_47
*972 FILLER_25_54
*973 FILLER_25_57
*974 FILLER_25_71
*975 FILLER_25_91
*976 FILLER_26_103
*977 FILLER_26_112
*978 FILLER_26_123
*979 FILLER_26_13
*980 FILLER_26_130
*981 FILLER_26_138
*982 FILLER_26_141
*983 FILLER_26_153
*984 FILLER_26_165
*985 FILLER_26_177
*986 FILLER_26_189
*987 FILLER_26_195
*988 FILLER_26_197
*989 FILLER_26_209
*990 FILLER_26_221
*991 FILLER_26_233
*992 FILLER_26_245
*993 FILLER_26_251
*994 FILLER_26_253
*995 FILLER_26_26
*996 FILLER_26_265
*997 FILLER_26_277
*998 FILLER_26_289
*999 FILLER_26_29
*1000 FILLER_26_297
*1001 FILLER_26_3
*1002 FILLER_26_40
*1003 FILLER_26_51
*1004 FILLER_26_57
*1005 FILLER_26_65
*1006 FILLER_26_75
*1007 FILLER_26_82
*1008 FILLER_26_85
*1009 FILLER_26_95
*1010 FILLER_27_104
*1011 FILLER_27_113
*1012 FILLER_27_119
*1013 FILLER_27_126
*1014 FILLER_27_138
*1015 FILLER_27_150
*1016 FILLER_27_162
*1017 FILLER_27_169
*1018 FILLER_27_181
*1019 FILLER_27_193
*1020 FILLER_27_205
*1021 FILLER_27_217
*1022 FILLER_27_22
*1023 FILLER_27_223
*1024 FILLER_27_225
*1025 FILLER_27_237
*1026 FILLER_27_249
*1027 FILLER_27_261
*1028 FILLER_27_273
*1029 FILLER_27_279
*1030 FILLER_27_281
*1031 FILLER_27_293
*1032 FILLER_27_3
*1033 FILLER_27_30
*1034 FILLER_27_43
*1035 FILLER_27_54
*1036 FILLER_27_57
*1037 FILLER_27_62
*1038 FILLER_27_66
*1039 FILLER_27_73
*1040 FILLER_27_93
*1041 FILLER_28_103
*1042 FILLER_28_107
*1043 FILLER_28_114
*1044 FILLER_28_122
*1045 FILLER_28_134
*1046 FILLER_28_14
*1047 FILLER_28_141
*1048 FILLER_28_153
*1049 FILLER_28_165
*1050 FILLER_28_177
*1051 FILLER_28_189
*1052 FILLER_28_195
*1053 FILLER_28_197
*1054 FILLER_28_209
*1055 FILLER_28_221
*1056 FILLER_28_233
*1057 FILLER_28_24
*1058 FILLER_28_245
*1059 FILLER_28_251
*1060 FILLER_28_253
*1061 FILLER_28_265
*1062 FILLER_28_277
*1063 FILLER_28_289
*1064 FILLER_28_29
*1065 FILLER_28_297
*1066 FILLER_28_3
*1067 FILLER_28_35
*1068 FILLER_28_45
*1069 FILLER_28_56
*1070 FILLER_28_68
*1071 FILLER_28_7
*1072 FILLER_28_80
*1073 FILLER_28_85
*1074 FILLER_28_90
*1075 FILLER_28_94
*1076 FILLER_29_107
*1077 FILLER_29_11
*1078 FILLER_29_111
*1079 FILLER_29_113
*1080 FILLER_29_121
*1081 FILLER_29_133
*1082 FILLER_29_145
*1083 FILLER_29_157
*1084 FILLER_29_165
*1085 FILLER_29_169
*1086 FILLER_29_17
*1087 FILLER_29_181
*1088 FILLER_29_193
*1089 FILLER_29_205
*1090 FILLER_29_217
*1091 FILLER_29_223
*1092 FILLER_29_225
*1093 FILLER_29_237
*1094 FILLER_29_24
*1095 FILLER_29_249
*1096 FILLER_29_261
*1097 FILLER_29_273
*1098 FILLER_29_279
*1099 FILLER_29_281
*1100 FILLER_29_293
*1101 FILLER_29_3
*1102 FILLER_29_34
*1103 FILLER_29_47
*1104 FILLER_29_54
*1105 FILLER_29_57
*1106 FILLER_29_63
*1107 FILLER_29_70
*1108 FILLER_29_82
*1109 FILLER_29_94
*1110 FILLER_29_98
*1111 FILLER_2_109
*1112 FILLER_2_121
*1113 FILLER_2_133
*1114 FILLER_2_139
*1115 FILLER_2_141
*1116 FILLER_2_153
*1117 FILLER_2_165
*1118 FILLER_2_17
*1119 FILLER_2_177
*1120 FILLER_2_189
*1121 FILLER_2_195
*1122 FILLER_2_197
*1123 FILLER_2_209
*1124 FILLER_2_221
*1125 FILLER_2_233
*1126 FILLER_2_245
*1127 FILLER_2_25
*1128 FILLER_2_251
*1129 FILLER_2_253
*1130 FILLER_2_265
*1131 FILLER_2_277
*1132 FILLER_2_289
*1133 FILLER_2_29
*1134 FILLER_2_297
*1135 FILLER_2_3
*1136 FILLER_2_41
*1137 FILLER_2_65
*1138 FILLER_2_77
*1139 FILLER_2_83
*1140 FILLER_2_85
*1141 FILLER_2_9
*1142 FILLER_2_97
*1143 FILLER_30_101
*1144 FILLER_30_110
*1145 FILLER_30_120
*1146 FILLER_30_132
*1147 FILLER_30_141
*1148 FILLER_30_153
*1149 FILLER_30_165
*1150 FILLER_30_177
*1151 FILLER_30_189
*1152 FILLER_30_195
*1153 FILLER_30_197
*1154 FILLER_30_209
*1155 FILLER_30_21
*1156 FILLER_30_221
*1157 FILLER_30_233
*1158 FILLER_30_245
*1159 FILLER_30_251
*1160 FILLER_30_253
*1161 FILLER_30_265
*1162 FILLER_30_27
*1163 FILLER_30_277
*1164 FILLER_30_289
*1165 FILLER_30_29
*1166 FILLER_30_297
*1167 FILLER_30_3
*1168 FILLER_30_33
*1169 FILLER_30_40
*1170 FILLER_30_51
*1171 FILLER_30_65
*1172 FILLER_30_78
*1173 FILLER_30_85
*1174 FILLER_30_97
*1175 FILLER_31_110
*1176 FILLER_31_113
*1177 FILLER_31_119
*1178 FILLER_31_12
*1179 FILLER_31_126
*1180 FILLER_31_138
*1181 FILLER_31_150
*1182 FILLER_31_162
*1183 FILLER_31_169
*1184 FILLER_31_181
*1185 FILLER_31_193
*1186 FILLER_31_205
*1187 FILLER_31_217
*1188 FILLER_31_223
*1189 FILLER_31_225
*1190 FILLER_31_237
*1191 FILLER_31_249
*1192 FILLER_31_261
*1193 FILLER_31_273
*1194 FILLER_31_279
*1195 FILLER_31_281
*1196 FILLER_31_293
*1197 FILLER_31_3
*1198 FILLER_31_36
*1199 FILLER_31_43
*1200 FILLER_31_54
*1201 FILLER_31_57
*1202 FILLER_31_68
*1203 FILLER_31_77
*1204 FILLER_31_99
*1205 FILLER_32_109
*1206 FILLER_32_119
*1207 FILLER_32_126
*1208 FILLER_32_138
*1209 FILLER_32_141
*1210 FILLER_32_15
*1211 FILLER_32_153
*1212 FILLER_32_165
*1213 FILLER_32_177
*1214 FILLER_32_189
*1215 FILLER_32_19
*1216 FILLER_32_195
*1217 FILLER_32_197
*1218 FILLER_32_209
*1219 FILLER_32_221
*1220 FILLER_32_233
*1221 FILLER_32_245
*1222 FILLER_32_25
*1223 FILLER_32_251
*1224 FILLER_32_253
*1225 FILLER_32_265
*1226 FILLER_32_277
*1227 FILLER_32_289
*1228 FILLER_32_29
*1229 FILLER_32_297
*1230 FILLER_32_3
*1231 FILLER_32_43
*1232 FILLER_32_57
*1233 FILLER_32_70
*1234 FILLER_32_82
*1235 FILLER_32_85
*1236 FILLER_32_97
*1237 FILLER_33_107
*1238 FILLER_33_111
*1239 FILLER_33_113
*1240 FILLER_33_119
*1241 FILLER_33_126
*1242 FILLER_33_133
*1243 FILLER_33_14
*1244 FILLER_33_145
*1245 FILLER_33_157
*1246 FILLER_33_165
*1247 FILLER_33_169
*1248 FILLER_33_181
*1249 FILLER_33_193
*1250 FILLER_33_205
*1251 FILLER_33_217
*1252 FILLER_33_22
*1253 FILLER_33_223
*1254 FILLER_33_225
*1255 FILLER_33_237
*1256 FILLER_33_249
*1257 FILLER_33_261
*1258 FILLER_33_273
*1259 FILLER_33_279
*1260 FILLER_33_281
*1261 FILLER_33_293
*1262 FILLER_33_3
*1263 FILLER_33_32
*1264 FILLER_33_40
*1265 FILLER_33_52
*1266 FILLER_33_57
*1267 FILLER_33_70
*1268 FILLER_33_81
*1269 FILLER_33_95
*1270 FILLER_34_103
*1271 FILLER_34_115
*1272 FILLER_34_124
*1273 FILLER_34_131
*1274 FILLER_34_139
*1275 FILLER_34_141
*1276 FILLER_34_153
*1277 FILLER_34_165
*1278 FILLER_34_177
*1279 FILLER_34_189
*1280 FILLER_34_195
*1281 FILLER_34_197
*1282 FILLER_34_209
*1283 FILLER_34_21
*1284 FILLER_34_221
*1285 FILLER_34_233
*1286 FILLER_34_245
*1287 FILLER_34_251
*1288 FILLER_34_253
*1289 FILLER_34_265
*1290 FILLER_34_27
*1291 FILLER_34_277
*1292 FILLER_34_289
*1293 FILLER_34_29
*1294 FILLER_34_297
*1295 FILLER_34_3
*1296 FILLER_34_53
*1297 FILLER_34_65
*1298 FILLER_34_73
*1299 FILLER_34_82
*1300 FILLER_34_85
*1301 FILLER_35_100
*1302 FILLER_35_109
*1303 FILLER_35_113
*1304 FILLER_35_121
*1305 FILLER_35_128
*1306 FILLER_35_140
*1307 FILLER_35_152
*1308 FILLER_35_164
*1309 FILLER_35_169
*1310 FILLER_35_17
*1311 FILLER_35_181
*1312 FILLER_35_193
*1313 FILLER_35_205
*1314 FILLER_35_217
*1315 FILLER_35_223
*1316 FILLER_35_225
*1317 FILLER_35_237
*1318 FILLER_35_249
*1319 FILLER_35_26
*1320 FILLER_35_261
*1321 FILLER_35_273
*1322 FILLER_35_279
*1323 FILLER_35_281
*1324 FILLER_35_293
*1325 FILLER_35_3
*1326 FILLER_35_34
*1327 FILLER_35_41
*1328 FILLER_35_54
*1329 FILLER_35_57
*1330 FILLER_35_70
*1331 FILLER_35_82
*1332 FILLER_35_9
*1333 FILLER_35_94
*1334 FILLER_36_109
*1335 FILLER_36_117
*1336 FILLER_36_125
*1337 FILLER_36_132
*1338 FILLER_36_14
*1339 FILLER_36_141
*1340 FILLER_36_153
*1341 FILLER_36_165
*1342 FILLER_36_177
*1343 FILLER_36_189
*1344 FILLER_36_195
*1345 FILLER_36_197
*1346 FILLER_36_209
*1347 FILLER_36_221
*1348 FILLER_36_23
*1349 FILLER_36_233
*1350 FILLER_36_245
*1351 FILLER_36_251
*1352 FILLER_36_253
*1353 FILLER_36_265
*1354 FILLER_36_27
*1355 FILLER_36_277
*1356 FILLER_36_289
*1357 FILLER_36_29
*1358 FILLER_36_297
*1359 FILLER_36_3
*1360 FILLER_36_36
*1361 FILLER_36_44
*1362 FILLER_36_53
*1363 FILLER_36_61
*1364 FILLER_36_67
*1365 FILLER_36_75
*1366 FILLER_36_82
*1367 FILLER_36_85
*1368 FILLER_36_9
*1369 FILLER_36_96
*1370 FILLER_37_103
*1371 FILLER_37_110
*1372 FILLER_37_113
*1373 FILLER_37_119
*1374 FILLER_37_127
*1375 FILLER_37_139
*1376 FILLER_37_14
*1377 FILLER_37_151
*1378 FILLER_37_163
*1379 FILLER_37_167
*1380 FILLER_37_169
*1381 FILLER_37_181
*1382 FILLER_37_193
*1383 FILLER_37_205
*1384 FILLER_37_217
*1385 FILLER_37_223
*1386 FILLER_37_225
*1387 FILLER_37_237
*1388 FILLER_37_24
*1389 FILLER_37_249
*1390 FILLER_37_261
*1391 FILLER_37_273
*1392 FILLER_37_279
*1393 FILLER_37_281
*1394 FILLER_37_293
*1395 FILLER_37_3
*1396 FILLER_37_33
*1397 FILLER_37_42
*1398 FILLER_37_48
*1399 FILLER_37_54
*1400 FILLER_37_57
*1401 FILLER_37_70
*1402 FILLER_37_74
*1403 FILLER_37_81
*1404 FILLER_37_90
*1405 FILLER_38_101
*1406 FILLER_38_110
*1407 FILLER_38_117
*1408 FILLER_38_129
*1409 FILLER_38_137
*1410 FILLER_38_141
*1411 FILLER_38_153
*1412 FILLER_38_165
*1413 FILLER_38_177
*1414 FILLER_38_189
*1415 FILLER_38_195
*1416 FILLER_38_197
*1417 FILLER_38_209
*1418 FILLER_38_21
*1419 FILLER_38_221
*1420 FILLER_38_233
*1421 FILLER_38_245
*1422 FILLER_38_251
*1423 FILLER_38_253
*1424 FILLER_38_265
*1425 FILLER_38_27
*1426 FILLER_38_277
*1427 FILLER_38_289
*1428 FILLER_38_29
*1429 FILLER_38_297
*1430 FILLER_38_3
*1431 FILLER_38_37
*1432 FILLER_38_48
*1433 FILLER_38_57
*1434 FILLER_38_66
*1435 FILLER_38_72
*1436 FILLER_38_78
*1437 FILLER_38_85
*1438 FILLER_38_94
*1439 FILLER_39_105
*1440 FILLER_39_111
*1441 FILLER_39_113
*1442 FILLER_39_118
*1443 FILLER_39_130
*1444 FILLER_39_142
*1445 FILLER_39_154
*1446 FILLER_39_16
*1447 FILLER_39_166
*1448 FILLER_39_169
*1449 FILLER_39_181
*1450 FILLER_39_193
*1451 FILLER_39_205
*1452 FILLER_39_217
*1453 FILLER_39_223
*1454 FILLER_39_225
*1455 FILLER_39_237
*1456 FILLER_39_249
*1457 FILLER_39_261
*1458 FILLER_39_273
*1459 FILLER_39_279
*1460 FILLER_39_28
*1461 FILLER_39_281
*1462 FILLER_39_293
*1463 FILLER_39_3
*1464 FILLER_39_38
*1465 FILLER_39_54
*1466 FILLER_39_57
*1467 FILLER_39_66
*1468 FILLER_39_75
*1469 FILLER_39_83
*1470 FILLER_39_95
*1471 FILLER_3_105
*1472 FILLER_3_111
*1473 FILLER_3_113
*1474 FILLER_3_12
*1475 FILLER_3_125
*1476 FILLER_3_137
*1477 FILLER_3_149
*1478 FILLER_3_161
*1479 FILLER_3_167
*1480 FILLER_3_169
*1481 FILLER_3_181
*1482 FILLER_3_193
*1483 FILLER_3_20
*1484 FILLER_3_205
*1485 FILLER_3_217
*1486 FILLER_3_223
*1487 FILLER_3_225
*1488 FILLER_3_237
*1489 FILLER_3_249
*1490 FILLER_3_261
*1491 FILLER_3_273
*1492 FILLER_3_279
*1493 FILLER_3_281
*1494 FILLER_3_293
*1495 FILLER_3_3
*1496 FILLER_3_30
*1497 FILLER_3_39
*1498 FILLER_3_52
*1499 FILLER_3_57
*1500 FILLER_3_69
*1501 FILLER_3_7
*1502 FILLER_3_93
*1503 FILLER_40_103
*1504 FILLER_40_114
*1505 FILLER_40_126
*1506 FILLER_40_138
*1507 FILLER_40_141
*1508 FILLER_40_153
*1509 FILLER_40_165
*1510 FILLER_40_177
*1511 FILLER_40_189
*1512 FILLER_40_195
*1513 FILLER_40_197
*1514 FILLER_40_209
*1515 FILLER_40_21
*1516 FILLER_40_221
*1517 FILLER_40_233
*1518 FILLER_40_245
*1519 FILLER_40_251
*1520 FILLER_40_253
*1521 FILLER_40_265
*1522 FILLER_40_27
*1523 FILLER_40_277
*1524 FILLER_40_289
*1525 FILLER_40_29
*1526 FILLER_40_297
*1527 FILLER_40_3
*1528 FILLER_40_39
*1529 FILLER_40_67
*1530 FILLER_40_78
*1531 FILLER_40_85
*1532 FILLER_40_91
*1533 FILLER_41_102
*1534 FILLER_41_107
*1535 FILLER_41_111
*1536 FILLER_41_113
*1537 FILLER_41_119
*1538 FILLER_41_12
*1539 FILLER_41_126
*1540 FILLER_41_138
*1541 FILLER_41_150
*1542 FILLER_41_162
*1543 FILLER_41_169
*1544 FILLER_41_181
*1545 FILLER_41_193
*1546 FILLER_41_205
*1547 FILLER_41_217
*1548 FILLER_41_223
*1549 FILLER_41_225
*1550 FILLER_41_237
*1551 FILLER_41_249
*1552 FILLER_41_261
*1553 FILLER_41_273
*1554 FILLER_41_279
*1555 FILLER_41_281
*1556 FILLER_41_293
*1557 FILLER_41_3
*1558 FILLER_41_36
*1559 FILLER_41_44
*1560 FILLER_41_53
*1561 FILLER_41_57
*1562 FILLER_41_72
*1563 FILLER_41_96
*1564 FILLER_42_102
*1565 FILLER_42_113
*1566 FILLER_42_122
*1567 FILLER_42_134
*1568 FILLER_42_141
*1569 FILLER_42_153
*1570 FILLER_42_165
*1571 FILLER_42_17
*1572 FILLER_42_177
*1573 FILLER_42_189
*1574 FILLER_42_195
*1575 FILLER_42_197
*1576 FILLER_42_209
*1577 FILLER_42_221
*1578 FILLER_42_233
*1579 FILLER_42_245
*1580 FILLER_42_251
*1581 FILLER_42_253
*1582 FILLER_42_26
*1583 FILLER_42_265
*1584 FILLER_42_277
*1585 FILLER_42_289
*1586 FILLER_42_29
*1587 FILLER_42_297
*1588 FILLER_42_3
*1589 FILLER_42_35
*1590 FILLER_42_42
*1591 FILLER_42_52
*1592 FILLER_42_60
*1593 FILLER_42_68
*1594 FILLER_42_82
*1595 FILLER_42_85
*1596 FILLER_42_9
*1597 FILLER_42_91
*1598 FILLER_43_109
*1599 FILLER_43_113
*1600 FILLER_43_118
*1601 FILLER_43_125
*1602 FILLER_43_137
*1603 FILLER_43_14
*1604 FILLER_43_149
*1605 FILLER_43_161
*1606 FILLER_43_167
*1607 FILLER_43_169
*1608 FILLER_43_181
*1609 FILLER_43_193
*1610 FILLER_43_20
*1611 FILLER_43_205
*1612 FILLER_43_217
*1613 FILLER_43_223
*1614 FILLER_43_225