*SPEF "ieee 1481-1999"
*DESIGN "cpldcpu_TrainLED2top"
*DATE "11:11:11 Fri 11 11, 1111"
*VENDOR "OpenRCX"
*PROGRAM "Parallel Extraction"
*VERSION "1.0"
*DESIGN_FLOW "NAME_SCOPE LOCAL" "PIN_CAP NONE"
*DIVIDER /
*DELIMITER :
*BUS_DELIMITER []
*T_UNIT 1 NS
*C_UNIT 1 PF
*R_UNIT 1 OHM
*L_UNIT 1 HENRY

*NAME_MAP
*1 io_in[0]
*2 io_in[1]
*3 io_in[2]
*4 io_in[3]
*5 io_in[4]
*6 io_in[5]
*7 io_in[6]
*8 io_in[7]
*9 io_out[0]
*10 io_out[1]
*11 io_out[2]
*12 io_out[3]
*13 net3
*14 net4
*15 net5
*16 net6
*19 TrainLED2_top1\.PWM1\.LEDdff
*20 TrainLED2_top1\.PWM1\.PW_in\[0\]
*21 TrainLED2_top1\.PWM1\.PW_in\[1\]
*22 TrainLED2_top1\.PWM1\.PW_in\[2\]
*23 TrainLED2_top1\.PWM1\.PW_in\[3\]
*24 TrainLED2_top1\.PWM1\.PW_in\[4\]
*25 TrainLED2_top1\.PWM1\.PW_in\[5\]
*26 TrainLED2_top1\.PWM1\.PW_in\[6\]
*27 TrainLED2_top1\.PWM1\.PW_in\[7\]
*28 TrainLED2_top1\.PWM1\.counter\[0\]
*29 TrainLED2_top1\.PWM1\.counter\[1\]
*30 TrainLED2_top1\.PWM1\.counter\[2\]
*31 TrainLED2_top1\.PWM1\.counter\[3\]
*32 TrainLED2_top1\.PWM1\.datalatch\[0\]
*33 TrainLED2_top1\.PWM1\.datalatch\[1\]
*34 TrainLED2_top1\.PWM1\.datalatch\[2\]
*35 TrainLED2_top1\.PWM1\.datalatch\[3\]
*36 TrainLED2_top1\.PWM1\.datalatch\[4\]
*37 TrainLED2_top1\.PWM1\.datalatch\[5\]
*38 TrainLED2_top1\.PWM1\.datalatch\[6\]
*39 TrainLED2_top1\.PWM1\.datalatch\[7\]
*40 TrainLED2_top1\.PWM1\.modulator\[0\]
*41 TrainLED2_top1\.PWM1\.modulator\[1\]
*42 TrainLED2_top1\.PWM1\.modulator\[2\]
*43 TrainLED2_top1\.PWM1\.modulator\[3\]
*44 TrainLED2_top1\.PWM2\.LEDdff
*45 TrainLED2_top1\.PWM2\.PW_in\[0\]
*46 TrainLED2_top1\.PWM2\.PW_in\[1\]
*47 TrainLED2_top1\.PWM2\.PW_in\[2\]
*48 TrainLED2_top1\.PWM2\.PW_in\[3\]
*49 TrainLED2_top1\.PWM2\.PW_in\[4\]
*50 TrainLED2_top1\.PWM2\.PW_in\[5\]
*51 TrainLED2_top1\.PWM2\.PW_in\[6\]
*52 TrainLED2_top1\.PWM2\.PW_in\[7\]
*53 TrainLED2_top1\.PWM2\.datalatch\[0\]
*54 TrainLED2_top1\.PWM2\.datalatch\[1\]
*55 TrainLED2_top1\.PWM2\.datalatch\[2\]
*56 TrainLED2_top1\.PWM2\.datalatch\[3\]
*57 TrainLED2_top1\.PWM2\.datalatch\[4\]
*58 TrainLED2_top1\.PWM2\.datalatch\[5\]
*59 TrainLED2_top1\.PWM2\.datalatch\[6\]
*60 TrainLED2_top1\.PWM2\.datalatch\[7\]
*61 TrainLED2_top1\.PWM2\.modulator\[0\]
*62 TrainLED2_top1\.PWM2\.modulator\[1\]
*63 TrainLED2_top1\.PWM2\.modulator\[2\]
*64 TrainLED2_top1\.PWM2\.modulator\[3\]
*65 TrainLED2_top1\.PWM3\.LEDdff
*66 TrainLED2_top1\.PWM3\.PW_in\[0\]
*67 TrainLED2_top1\.PWM3\.PW_in\[1\]
*68 TrainLED2_top1\.PWM3\.PW_in\[2\]
*69 TrainLED2_top1\.PWM3\.PW_in\[3\]
*70 TrainLED2_top1\.PWM3\.PW_in\[4\]
*71 TrainLED2_top1\.PWM3\.PW_in\[5\]
*72 TrainLED2_top1\.PWM3\.PW_in\[6\]
*73 TrainLED2_top1\.PWM3\.PW_in\[7\]
*74 TrainLED2_top1\.PWM3\.datalatch\[0\]
*75 TrainLED2_top1\.PWM3\.datalatch\[1\]
*76 TrainLED2_top1\.PWM3\.datalatch\[2\]
*77 TrainLED2_top1\.PWM3\.datalatch\[3\]
*78 TrainLED2_top1\.PWM3\.datalatch\[4\]
*79 TrainLED2_top1\.PWM3\.datalatch\[5\]
*80 TrainLED2_top1\.PWM3\.datalatch\[6\]
*81 TrainLED2_top1\.PWM3\.datalatch\[7\]
*82 TrainLED2_top1\.PWM3\.modulator\[0\]
*83 TrainLED2_top1\.PWM3\.modulator\[1\]
*84 TrainLED2_top1\.PWM3\.modulator\[2\]
*85 TrainLED2_top1\.PWM3\.modulator\[3\]
*86 TrainLED2_top1\.bitcount\[0\]
*87 TrainLED2_top1\.bitcount\[1\]
*88 TrainLED2_top1\.bitcount\[2\]
*89 TrainLED2_top1\.bitcount\[3\]
*90 TrainLED2_top1\.bitcount\[4\]
*91 TrainLED2_top1\.dout
*92 TrainLED2_top1\.finecount\[0\]
*93 TrainLED2_top1\.finecount\[1\]
*94 TrainLED2_top1\.finecount\[2\]
*95 TrainLED2_top1\.finecount\[3\]
*96 TrainLED2_top1\.mode\[0\]
*97 TrainLED2_top1\.mode\[1\]
*98 TrainLED2_top1\.resetcount\[0\]
*99 TrainLED2_top1\.resetcount\[1\]
*100 TrainLED2_top1\.resetcount\[2\]
*101 TrainLED2_top1\.resetcount\[3\]
*102 TrainLED2_top1\.resetcount\[4\]
*103 TrainLED2_top1\.resetcount\[5\]
*104 TrainLED2_top1\.resetcount\[6\]
*105 TrainLED2_top1\.resetcount\[7\]
*106 _000_
*107 _001_
*108 _002_
*109 _003_
*110 _004_
*111 _005_
*112 _006_
*113 _007_
*114 _008_
*115 _009_
*116 _010_
*117 _011_
*118 _012_
*119 _013_
*120 _014_
*121 _015_
*122 _016_
*123 _017_
*124 _018_
*125 _019_
*126 _020_
*127 _021_
*128 _022_
*129 _023_
*130 _024_
*131 _025_
*132 _026_
*133 _027_
*134 _028_
*135 _029_
*136 _030_
*137 _031_
*138 _032_
*139 _033_
*140 _034_
*141 _035_
*142 _036_
*143 _037_
*144 _038_
*145 _039_
*146 _040_
*147 _041_
*148 _042_
*149 _043_
*150 _044_
*151 _045_
*152 _046_
*153 _047_
*154 _048_
*155 _049_
*156 _050_
*157 _051_
*158 _052_
*159 _053_
*160 _054_
*161 _055_
*162 _056_
*163 _057_
*164 _058_
*165 _059_
*166 _060_
*167 _061_
*168 _062_
*169 _063_
*170 _064_
*171 _065_
*172 _066_
*173 _067_
*174 _068_
*175 _069_
*176 _070_
*177 _071_
*178 _072_
*179 _073_
*180 _074_
*181 _075_
*182 _076_
*183 _077_
*184 _078_
*185 _079_
*186 _080_
*187 _081_
*188 _082_
*189 _083_
*190 _084_
*191 _085_
*192 _086_
*193 _087_
*194 _088_
*195 _089_
*196 _090_
*197 _091_
*198 _092_
*199 _093_
*200 _094_
*201 _095_
*202 _096_
*203 _097_
*204 _098_
*205 _099_
*206 _100_
*207 _101_
*208 _102_
*209 _103_
*210 _104_
*211 _105_
*212 _106_
*213 _107_
*214 _108_
*215 _109_
*216 _110_
*217 _111_
*218 _112_
*219 _113_
*220 _114_
*221 _115_
*222 _116_
*223 _117_
*224 _118_
*225 _119_
*226 _120_
*227 _121_
*228 _122_
*229 _123_
*230 _124_
*231 _125_
*232 _126_
*233 _127_
*234 _128_
*235 _129_
*236 _130_
*237 _131_
*238 _132_
*239 _133_
*240 _134_
*241 _135_
*242 _136_
*243 _137_
*244 _138_
*245 _139_
*246 _140_
*247 _141_
*248 _142_
*249 _143_
*250 _144_
*251 _145_
*252 _146_
*253 _147_
*254 _148_
*255 _149_
*256 _150_
*257 _151_
*258 _152_
*259 _153_
*260 _154_
*261 _155_
*262 _156_
*263 _157_
*264 _158_
*265 _159_
*266 _160_
*267 _161_
*268 _162_
*269 _163_
*270 _164_
*271 _165_
*272 _166_
*273 _167_
*274 _168_
*275 _169_
*276 _170_
*277 _171_
*278 _172_
*279 _173_
*280 _174_
*281 _175_
*282 _176_
*283 _177_
*284 _178_
*285 _179_
*286 _180_
*287 _181_
*288 _182_
*289 _183_
*290 _184_
*291 _185_
*292 _186_
*293 _187_
*294 _188_
*295 _189_
*296 _190_
*297 _191_
*298 _192_
*299 _193_
*300 _194_
*301 _195_
*302 _196_
*303 _197_
*304 _198_
*305 _199_
*306 _200_
*307 _201_
*308 _202_
*309 _203_
*310 _204_
*311 _205_
*312 _206_
*313 _207_
*314 _208_
*315 _209_
*316 _210_
*317 _211_
*318 _212_
*319 _213_
*320 _214_
*321 _215_
*322 _216_
*323 _217_
*324 _218_
*325 _219_
*326 _220_
*327 _221_
*328 _222_
*329 _223_
*330 _224_
*331 _225_
*332 _226_
*333 _227_
*334 _228_
*335 _229_
*336 _230_
*337 _231_
*338 _232_
*339 _233_
*340 _234_
*341 _235_
*342 _236_
*343 _237_
*344 _238_
*345 _239_
*346 _240_
*347 _241_
*348 _242_
*349 _243_
*350 _244_
*351 _245_
*352 _246_
*353 _247_
*354 _248_
*355 _249_
*356 _250_
*357 _251_
*358 _252_
*359 _253_
*360 _254_
*361 _255_
*362 _256_
*363 _257_
*364 _258_
*365 _259_
*366 _260_
*367 _261_
*368 _262_
*369 _263_
*370 _264_
*371 _265_
*372 _266_
*373 _267_
*374 _268_
*375 _269_
*376 _270_
*377 _271_
*378 _272_
*379 _273_
*380 _274_
*381 _275_
*382 _276_
*383 _277_
*384 _278_
*385 _279_
*386 _280_
*387 _281_
*388 _282_
*389 _283_
*390 _284_
*391 _285_
*392 _286_
*393 _287_
*394 _288_
*395 _289_
*396 _290_
*397 _291_
*398 _292_
*399 _293_
*400 _294_
*401 _295_
*402 _296_
*403 _297_
*404 _298_
*405 _299_
*406 _300_
*407 _301_
*408 _302_
*409 clknet_0_io_in[0]
*410 clknet_3_0__leaf_io_in[0]
*411 clknet_3_1__leaf_io_in[0]
*412 clknet_3_2__leaf_io_in[0]
*413 clknet_3_3__leaf_io_in[0]
*414 clknet_3_4__leaf_io_in[0]
*415 clknet_3_5__leaf_io_in[0]
*416 clknet_3_6__leaf_io_in[0]
*417 clknet_3_7__leaf_io_in[0]
*418 net1
*419 net2
*420 ANTENNA_1
*421 ANTENNA_10
*422 ANTENNA_11
*423 ANTENNA_12
*424 ANTENNA_13
*425 ANTENNA_14
*426 ANTENNA_15
*427 ANTENNA_16
*428 ANTENNA_17
*429 ANTENNA_18
*430 ANTENNA_19
*431 ANTENNA_2
*432 ANTENNA_20
*433 ANTENNA_21
*434 ANTENNA_22
*435 ANTENNA_23
*436 ANTENNA_24
*437 ANTENNA_25
*438 ANTENNA_26
*439 ANTENNA_27
*440 ANTENNA_28
*441 ANTENNA_29
*442 ANTENNA_3
*443 ANTENNA_4
*444 ANTENNA_5
*445 ANTENNA_6
*446 ANTENNA_7
*447 ANTENNA_8
*448 ANTENNA_9
*449 FILLER_0_110
*450 FILLER_0_113
*451 FILLER_0_131
*452 FILLER_0_135
*453 FILLER_0_139
*454 FILLER_0_141
*455 FILLER_0_159
*456 FILLER_0_163
*457 FILLER_0_167
*458 FILLER_0_169
*459 FILLER_0_181
*460 FILLER_0_193
*461 FILLER_0_197
*462 FILLER_0_209
*463 FILLER_0_221
*464 FILLER_0_225
*465 FILLER_0_237
*466 FILLER_0_249
*467 FILLER_0_253
*468 FILLER_0_26
*469 FILLER_0_265
*470 FILLER_0_277
*471 FILLER_0_281
*472 FILLER_0_29
*473 FILLER_0_293
*474 FILLER_0_3
*475 FILLER_0_50
*476 FILLER_0_54
*477 FILLER_0_57
*478 FILLER_0_65
*479 FILLER_0_82
*480 FILLER_0_85
*481 FILLER_0_9
*482 FILLER_0_93
*483 FILLER_10_101
*484 FILLER_10_119
*485 FILLER_10_131
*486 FILLER_10_139
*487 FILLER_10_141
*488 FILLER_10_153
*489 FILLER_10_162
*490 FILLER_10_174
*491 FILLER_10_186
*492 FILLER_10_194
*493 FILLER_10_197
*494 FILLER_10_209
*495 FILLER_10_221
*496 FILLER_10_233
*497 FILLER_10_245
*498 FILLER_10_251
*499 FILLER_10_253
*500 FILLER_10_26
*501 FILLER_10_265
*502 FILLER_10_277
*503 FILLER_10_289
*504 FILLER_10_29
*505 FILLER_10_297
*506 FILLER_10_3
*507 FILLER_10_33
*508 FILLER_10_51
*509 FILLER_10_59
*510 FILLER_10_82
*511 FILLER_10_85
*512 FILLER_10_9
*513 FILLER_10_97
*514 FILLER_11_105
*515 FILLER_11_111
*516 FILLER_11_113
*517 FILLER_11_125
*518 FILLER_11_137
*519 FILLER_11_149
*520 FILLER_11_15
*521 FILLER_11_156
*522 FILLER_11_169
*523 FILLER_11_181
*524 FILLER_11_193
*525 FILLER_11_205
*526 FILLER_11_217
*527 FILLER_11_223
*528 FILLER_11_225
*529 FILLER_11_237
*530 FILLER_11_249
*531 FILLER_11_261
*532 FILLER_11_273
*533 FILLER_11_279
*534 FILLER_11_281
*535 FILLER_11_293
*536 FILLER_11_3
*537 FILLER_11_36
*538 FILLER_11_53
*539 FILLER_11_57
*540 FILLER_11_69
*541 FILLER_11_93
*542 FILLER_12_101
*543 FILLER_12_119
*544 FILLER_12_131
*545 FILLER_12_139
*546 FILLER_12_141
*547 FILLER_12_153
*548 FILLER_12_159
*549 FILLER_12_167
*550 FILLER_12_178
*551 FILLER_12_190
*552 FILLER_12_197
*553 FILLER_12_209
*554 FILLER_12_221
*555 FILLER_12_233
*556 FILLER_12_245
*557 FILLER_12_251
*558 FILLER_12_253
*559 FILLER_12_26
*560 FILLER_12_265
*561 FILLER_12_277
*562 FILLER_12_289
*563 FILLER_12_29
*564 FILLER_12_297
*565 FILLER_12_3
*566 FILLER_12_33
*567 FILLER_12_36
*568 FILLER_12_54
*569 FILLER_12_62
*570 FILLER_12_82
*571 FILLER_12_85
*572 FILLER_12_9
*573 FILLER_12_97
*574 FILLER_13_110
*575 FILLER_13_113
*576 FILLER_13_125
*577 FILLER_13_137
*578 FILLER_13_149
*579 FILLER_13_15
*580 FILLER_13_161
*581 FILLER_13_167
*582 FILLER_13_169
*583 FILLER_13_181
*584 FILLER_13_193
*585 FILLER_13_205
*586 FILLER_13_217
*587 FILLER_13_223
*588 FILLER_13_225
*589 FILLER_13_237
*590 FILLER_13_249
*591 FILLER_13_261
*592 FILLER_13_273
*593 FILLER_13_279
*594 FILLER_13_281
*595 FILLER_13_293
*596 FILLER_13_3
*597 FILLER_13_33
*598 FILLER_13_54
*599 FILLER_13_57
*600 FILLER_13_69
*601 FILLER_13_88
*602 FILLER_13_92
*603 FILLER_14_101
*604 FILLER_14_119
*605 FILLER_14_131
*606 FILLER_14_139
*607 FILLER_14_141
*608 FILLER_14_149
*609 FILLER_14_156
*610 FILLER_14_168
*611 FILLER_14_180
*612 FILLER_14_192
*613 FILLER_14_197
*614 FILLER_14_209
*615 FILLER_14_21
*616 FILLER_14_221
*617 FILLER_14_233
*618 FILLER_14_245
*619 FILLER_14_251
*620 FILLER_14_253
*621 FILLER_14_265
*622 FILLER_14_27
*623 FILLER_14_277
*624 FILLER_14_289
*625 FILLER_14_29
*626 FILLER_14_297
*627 FILLER_14_3
*628 FILLER_14_37
*629 FILLER_14_55
*630 FILLER_14_75
*631 FILLER_14_83
*632 FILLER_14_85
*633 FILLER_14_97
*634 FILLER_15_110
*635 FILLER_15_113
*636 FILLER_15_125
*637 FILLER_15_137
*638 FILLER_15_149
*639 FILLER_15_162
*640 FILLER_15_169
*641 FILLER_15_181
*642 FILLER_15_193
*643 FILLER_15_205
*644 FILLER_15_217
*645 FILLER_15_223
*646 FILLER_15_225
*647 FILLER_15_23
*648 FILLER_15_237
*649 FILLER_15_249
*650 FILLER_15_261
*651 FILLER_15_27
*652 FILLER_15_273
*653 FILLER_15_279
*654 FILLER_15_281
*655 FILLER_15_293
*656 FILLER_15_3
*657 FILLER_15_45
*658 FILLER_15_53
*659 FILLER_15_57
*660 FILLER_15_69
*661 FILLER_15_73
*662 FILLER_15_90
*663 FILLER_16_110
*664 FILLER_16_130
*665 FILLER_16_138
*666 FILLER_16_141
*667 FILLER_16_149
*668 FILLER_16_155
*669 FILLER_16_159
*670 FILLER_16_169
*671 FILLER_16_181
*672 FILLER_16_193
*673 FILLER_16_197
*674 FILLER_16_209
*675 FILLER_16_21
*676 FILLER_16_221
*677 FILLER_16_233
*678 FILLER_16_245
*679 FILLER_16_251
*680 FILLER_16_253
*681 FILLER_16_265
*682 FILLER_16_27
*683 FILLER_16_277
*684 FILLER_16_289
*685 FILLER_16_29
*686 FILLER_16_297
*687 FILLER_16_3
*688 FILLER_16_43
*689 FILLER_16_62
*690 FILLER_16_82
*691 FILLER_16_85
*692 FILLER_16_93
*693 FILLER_17_105
*694 FILLER_17_111
*695 FILLER_17_113
*696 FILLER_17_131
*697 FILLER_17_143
*698 FILLER_17_15
*699 FILLER_17_151
*700 FILLER_17_155
*701 FILLER_17_159
*702 FILLER_17_166
*703 FILLER_17_169
*704 FILLER_17_177
*705 FILLER_17_189
*706 FILLER_17_201
*707 FILLER_17_213
*708 FILLER_17_221
*709 FILLER_17_225
*710 FILLER_17_237
*711 FILLER_17_249
*712 FILLER_17_261
*713 FILLER_17_273
*714 FILLER_17_279
*715 FILLER_17_281
*716 FILLER_17_293
*717 FILLER_17_3
*718 FILLER_17_36
*719 FILLER_17_48
*720 FILLER_17_57
*721 FILLER_17_69
*722 FILLER_17_93
*723 FILLER_18_103
*724 FILLER_18_120
*725 FILLER_18_132
*726 FILLER_18_141
*727 FILLER_18_153
*728 FILLER_18_165
*729 FILLER_18_177
*730 FILLER_18_189
*731 FILLER_18_195
*732 FILLER_18_197
*733 FILLER_18_209
*734 FILLER_18_21
*735 FILLER_18_215
*736 FILLER_18_221
*737 FILLER_18_230
*738 FILLER_18_242
*739 FILLER_18_249
*740 FILLER_18_25
*741 FILLER_18_253
*742 FILLER_18_261
*743 FILLER_18_269
*744 FILLER_18_281
*745 FILLER_18_29
*746 FILLER_18_293
*747 FILLER_18_3
*748 FILLER_18_38
*749 FILLER_18_42
*750 FILLER_18_61
*751 FILLER_18_65
*752 FILLER_18_82
*753 FILLER_18_85
*754 FILLER_18_97
*755 FILLER_19_110
*756 FILLER_19_113
*757 FILLER_19_131
*758 FILLER_19_143
*759 FILLER_19_155
*760 FILLER_19_167
*761 FILLER_19_169
*762 FILLER_19_177
*763 FILLER_19_189
*764 FILLER_19_199
*765 FILLER_19_211
*766 FILLER_19_222
*767 FILLER_19_225
*768 FILLER_19_237
*769 FILLER_19_245
*770 FILLER_19_251
*771 FILLER_19_263
*772 FILLER_19_275
*773 FILLER_19_279
*774 FILLER_19_281
*775 FILLER_19_293
*776 FILLER_19_3
*777 FILLER_19_31
*778 FILLER_19_51
*779 FILLER_19_55
*780 FILLER_19_57
*781 FILLER_19_76
*782 FILLER_19_80
*783 FILLER_19_92
*784 FILLER_1_104
*785 FILLER_1_113
*786 FILLER_1_131
*787 FILLER_1_151
*788 FILLER_1_158
*789 FILLER_1_166
*790 FILLER_1_169
*791 FILLER_1_181
*792 FILLER_1_193
*793 FILLER_1_205
*794 FILLER_1_217
*795 FILLER_1_223
*796 FILLER_1_225
*797 FILLER_1_237
*798 FILLER_1_249
*799 FILLER_1_261
*800 FILLER_1_273
*801 FILLER_1_279
*802 FILLER_1_281
*803 FILLER_1_293
*804 FILLER_1_3
*805 FILLER_1_31
*806 FILLER_1_35
*807 FILLER_1_54
*808 FILLER_1_57
*809 FILLER_1_81
*810 FILLER_1_87
*811 FILLER_20_103
*812 FILLER_20_120
*813 FILLER_20_132
*814 FILLER_20_141
*815 FILLER_20_149
*816 FILLER_20_160
*817 FILLER_20_172
*818 FILLER_20_184
*819 FILLER_20_197
*820 FILLER_20_209
*821 FILLER_20_21
*822 FILLER_20_221
*823 FILLER_20_233
*824 FILLER_20_245
*825 FILLER_20_25
*826 FILLER_20_251
*827 FILLER_20_253
*828 FILLER_20_265
*829 FILLER_20_277
*830 FILLER_20_289
*831 FILLER_20_29
*832 FILLER_20_297
*833 FILLER_20_3
*834 FILLER_20_37
*835 FILLER_20_55
*836 FILLER_20_59
*837 FILLER_20_78
*838 FILLER_20_85
*839 FILLER_20_97
*840 FILLER_21_110
*841 FILLER_21_113
*842 FILLER_21_125
*843 FILLER_21_137
*844 FILLER_21_15
*845 FILLER_21_152
*846 FILLER_21_160
*847 FILLER_21_169
*848 FILLER_21_179
*849 FILLER_21_191
*850 FILLER_21_199
*851 FILLER_21_206
*852 FILLER_21_218
*853 FILLER_21_225
*854 FILLER_21_232
*855 FILLER_21_244
*856 FILLER_21_256
*857 FILLER_21_268
*858 FILLER_21_27
*859 FILLER_21_281
*860 FILLER_21_293
*861 FILLER_21_3
*862 FILLER_21_39
*863 FILLER_21_48
*864 FILLER_21_57
*865 FILLER_21_69
*866 FILLER_21_73
*867 FILLER_21_90
*868 FILLER_22_105
*869 FILLER_22_117
*870 FILLER_22_129
*871 FILLER_22_137
*872 FILLER_22_141
*873 FILLER_22_15
*874 FILLER_22_153
*875 FILLER_22_171
*876 FILLER_22_183
*877 FILLER_22_195
*878 FILLER_22_197
*879 FILLER_22_208
*880 FILLER_22_219
*881 FILLER_22_232
*882 FILLER_22_244
*883 FILLER_22_253
*884 FILLER_22_265
*885 FILLER_22_27
*886 FILLER_22_277
*887 FILLER_22_289
*888 FILLER_22_29
*889 FILLER_22_297
*890 FILLER_22_3
*891 FILLER_22_37
*892 FILLER_22_46
*893 FILLER_22_54
*894 FILLER_22_71
*895 FILLER_22_79
*896 FILLER_22_83
*897 FILLER_22_85
*898 FILLER_23_110
*899 FILLER_23_113
*900 FILLER_23_125
*901 FILLER_23_131
*902 FILLER_23_135
*903 FILLER_23_143
*904 FILLER_23_150
*905 FILLER_23_154
*906 FILLER_23_161
*907 FILLER_23_167
*908 FILLER_23_169
*909 FILLER_23_181
*910 FILLER_23_189
*911 FILLER_23_19
*912 FILLER_23_196
*913 FILLER_23_208
*914 FILLER_23_222
*915 FILLER_23_225
*916 FILLER_23_237
*917 FILLER_23_249
*918 FILLER_23_261
*919 FILLER_23_27
*920 FILLER_23_273
*921 FILLER_23_279
*922 FILLER_23_281
*923 FILLER_23_293
*924 FILLER_23_3
*925 FILLER_23_39
*926 FILLER_23_46
*927 FILLER_23_50
*928 FILLER_23_54
*929 FILLER_23_57
*930 FILLER_23_69
*931 FILLER_23_79
*932 FILLER_23_86
*933 FILLER_23_98
*934 FILLER_24_109
*935 FILLER_24_121
*936 FILLER_24_133
*937 FILLER_24_139
*938 FILLER_24_14
*939 FILLER_24_141
*940 FILLER_24_153
*941 FILLER_24_165
*942 FILLER_24_177
*943 FILLER_24_185
*944 FILLER_24_194
*945 FILLER_24_197
*946 FILLER_24_204
*947 FILLER_24_214
*948 FILLER_24_223
*949 FILLER_24_235
*950 FILLER_24_24
*951 FILLER_24_247
*952 FILLER_24_251
*953 FILLER_24_253
*954 FILLER_24_265
*955 FILLER_24_277
*956 FILLER_24_29
*957 FILLER_24_292
*958 FILLER_24_298
*959 FILLER_24_3
*960 FILLER_24_39
*961 FILLER_24_52
*962 FILLER_24_58
*963 FILLER_24_66
*964 FILLER_24_80
*965 FILLER_24_85
*966 FILLER_24_97
*967 FILLER_25_11
*968 FILLER_25_111
*969 FILLER_25_113
*970 FILLER_25_125
*971 FILLER_25_131
*972 FILLER_25_137
*973 FILLER_25_147
*974 FILLER_25_15
*975 FILLER_25_159
*976 FILLER_25_167
*977 FILLER_25_169
*978 FILLER_25_177
*979 FILLER_25_183
*980 FILLER_25_190
*981 FILLER_25_202
*982 FILLER_25_207
*983 FILLER_25_22
*984 FILLER_25_222
*985 FILLER_25_225
*986 FILLER_25_229
*987 FILLER_25_247
*988 FILLER_25_259
*989 FILLER_25_26
*990 FILLER_25_271
*991 FILLER_25_279
*992 FILLER_25_281
*993 FILLER_25_294
*994 FILLER_25_298
*995 FILLER_25_3
*996 FILLER_25_34
*997 FILLER_25_42
*998 FILLER_25_49
*999 FILLER_25_55
*1000 FILLER_25_57
*1001 FILLER_25_63
*1002 FILLER_25_77
*1003 FILLER_25_87
*1004 FILLER_25_99
*1005 FILLER_26_109
*1006 FILLER_26_11
*1007 FILLER_26_121
*1008 FILLER_26_133
*1009 FILLER_26_139
*1010 FILLER_26_141
*1011 FILLER_26_151
*1012 FILLER_26_163
*1013 FILLER_26_175
*1014 FILLER_26_18
*1015 FILLER_26_187
*1016 FILLER_26_195
*1017 FILLER_26_197
*1018 FILLER_26_209
*1019 FILLER_26_221
*1020 FILLER_26_233
*1021 FILLER_26_245
*1022 FILLER_26_251
*1023 FILLER_26_253
*1024 FILLER_26_26
*1025 FILLER_26_265
*1026 FILLER_26_277
*1027 FILLER_26_289
*1028 FILLER_26_29
*1029 FILLER_26_296
*1030 FILLER_26_3
*1031 FILLER_26_41
*1032 FILLER_26_53
*1033 FILLER_26_65
*1034 FILLER_26_73
*1035 FILLER_26_80
*1036 FILLER_26_85
*1037 FILLER_26_97
*1038 FILLER_27_10
*1039 FILLER_27_101
*1040 FILLER_27_109
*1041 FILLER_27_113
*1042 FILLER_27_126
*1043 FILLER_27_138
*1044 FILLER_27_150
*1045 FILLER_27_162
*1046 FILLER_27_169
*1047 FILLER_27_181
*1048 FILLER_27_193
*1049 FILLER_27_20
*1050 FILLER_27_205
*1051 FILLER_27_211
*1052 FILLER_27_218
*1053 FILLER_27_225
*1054 FILLER_27_237
*1055 FILLER_27_249
*1056 FILLER_27_257
*1057 FILLER_27_264
*1058 FILLER_27_276
*1059 FILLER_27_281
*1060 FILLER_27_285
*1061 FILLER_27_293
*1062 FILLER_27_3
*1063 FILLER_27_31
*1064 FILLER_27_40
*1065 FILLER_27_52
*1066 FILLER_27_57
*1067 FILLER_27_65
*1068 FILLER_27_76
*1069 FILLER_27_89
*1070 FILLER_28_107
*1071 FILLER_28_119
*1072 FILLER_28_131
*1073 FILLER_28_139
*1074 FILLER_28_14
*1075 FILLER_28_141
*1076 FILLER_28_153
*1077 FILLER_28_171
*1078 FILLER_28_18
*1079 FILLER_28_183
*1080 FILLER_28_195
*1081 FILLER_28_197
*1082 FILLER_28_206
*1083 FILLER_28_215
*1084 FILLER_28_227
*1085 FILLER_28_23
*1086 FILLER_28_239
*1087 FILLER_28_251
*1088 FILLER_28_253
*1089 FILLER_28_265
*1090 FILLER_28_27
*1091 FILLER_28_277
*1092 FILLER_28_285
*1093 FILLER_28_29
*1094 FILLER_28_297
*1095 FILLER_28_3
*1096 FILLER_28_46
*1097 FILLER_28_58
*1098 FILLER_28_65
*1099 FILLER_28_72
*1100 FILLER_28_78
*1101 FILLER_28_82
*1102 FILLER_28_85
*1103 FILLER_28_95
*1104 FILLER_29_110
*1105 FILLER_29_113
*1106 FILLER_29_12
*1107 FILLER_29_125
*1108 FILLER_29_137
*1109 FILLER_29_149
*1110 FILLER_29_161
*1111 FILLER_29_167
*1112 FILLER_29_169
*1113 FILLER_29_181
*1114 FILLER_29_193
*1115 FILLER_29_205
*1116 FILLER_29_217
*1117 FILLER_29_223
*1118 FILLER_29_225
*1119 FILLER_29_237
*1120 FILLER_29_249
*1121 FILLER_29_261
*1122 FILLER_29_273
*1123 FILLER_29_279
*1124 FILLER_29_28
*1125 FILLER_29_281
*1126 FILLER_29_289
*1127 FILLER_29_295
*1128 FILLER_29_3
*1129 FILLER_29_40
*1130 FILLER_29_52
*1131 FILLER_29_57
*1132 FILLER_29_74
*1133 FILLER_29_86
*1134 FILLER_29_98
*1135 FILLER_2_118
*1136 FILLER_2_138
*1137 FILLER_2_141
*1138 FILLER_2_159
*1139 FILLER_2_171
*1140 FILLER_2_183
*1141 FILLER_2_195
*1142 FILLER_2_197
*1143 FILLER_2_209
*1144 FILLER_2_221
*1145 FILLER_2_233
*1146 FILLER_2_245
*1147 FILLER_2_251
*1148 FILLER_2_253
*1149 FILLER_2_26
*1150 FILLER_2_265
*1151 FILLER_2_277
*1152 FILLER_2_289
*1153 FILLER_2_29
*1154 FILLER_2_297
*1155 FILLER_2_3
*1156 FILLER_2_48
*1157 FILLER_2_54
*1158 FILLER_2_62
*1159 FILLER_2_8
*1160 FILLER_2_82
*1161 FILLER_2_85
*1162 FILLER_2_97
*1163 FILLER_30_104
*1164 FILLER_30_114
*1165 FILLER_30_126
*1166 FILLER_30_138
*1167 FILLER_30_141
*1168 FILLER_30_146
*1169 FILLER_30_15
*1170 FILLER_30_158
*1171 FILLER_30_170
*1172 FILLER_30_182
*1173 FILLER_30_194
*1174 FILLER_30_197
*1175 FILLER_30_209
*1176 FILLER_30_221
*1177 FILLER_30_233
*1178 FILLER_30_245
*1179 FILLER_30_251
*1180 FILLER_30_253
*1181 FILLER_30_26
*1182 FILLER_30_265
*1183 FILLER_30_273
*1184 FILLER_30_277
*1185 FILLER_30_286
*1186 FILLER_30_29
*1187 FILLER_30_296
*1188 FILLER_30_3
*1189 FILLER_30_35
*1190 FILLER_30_39
*1191 FILLER_30_51
*1192 FILLER_30_61
*1193 FILLER_30_68
*1194 FILLER_30_78
*1195 FILLER_30_85
*1196 FILLER_30_93
*1197 FILLER_30_97
*1198 FILLER_31_105
*1199 FILLER_31_111
*1200 FILLER_31_113
*1201 FILLER_31_121
*1202 FILLER_31_129
*1203 FILLER_31_13
*1204 FILLER_31_137
*1205 FILLER_31_145
*1206 FILLER_31_157
*1207 FILLER_31_165
*1208 FILLER_31_169
*1209 FILLER_31_173
*1210 FILLER_31_179
*1211 FILLER_31_192
*1212 FILLER_31_204
*1213 FILLER_31_21
*1214 FILLER_31_212
*1215 FILLER_31_220
*1216 FILLER_31_225
*1217 FILLER_31_237
*1218 FILLER_31_249
*1219 FILLER_31_261
*1220 FILLER_31_273
*1221 FILLER_31_279
*1222 FILLER_31_281
*1223 FILLER_31_29
*1224 FILLER_31_291
*1225 FILLER_31_3
*1226 FILLER_31_39
*1227 FILLER_31_51
*1228 FILLER_31_55
*1229 FILLER_31_57
*1230 FILLER_31_62
*1231 FILLER_31_74
*1232 FILLER_31_86
*1233 FILLER_31_93
*1234 FILLER_32_106
*1235 FILLER_32_118
*1236 FILLER_32_126
*1237 FILLER_32_136
*1238 FILLER_32_141
*1239 FILLER_32_148
*1240 FILLER_32_15
*1241 FILLER_32_160
*1242 FILLER_32_172
*1243 FILLER_32_184
*1244 FILLER_32_197
*1245 FILLER_32_209
*1246 FILLER_32_221
*1247 FILLER_32_234
*1248 FILLER_32_246
*1249 FILLER_32_253
*1250 FILLER_32_265
*1251 FILLER_32_27
*1252 FILLER_32_277
*1253 FILLER_32_289
*1254 FILLER_32_29
*1255 FILLER_32_297
*1256 FILLER_32_3
*1257 FILLER_32_33
*1258 FILLER_32_40
*1259 FILLER_32_52
*1260 FILLER_32_68
*1261 FILLER_32_80
*1262 FILLER_32_85
*1263 FILLER_32_96
*1264 FILLER_33_109
*1265 FILLER_33_113
*1266 FILLER_33_125
*1267 FILLER_33_131
*1268 FILLER_33_136
*1269 FILLER_33_155
*1270 FILLER_33_167
*1271 FILLER_33_169
*1272 FILLER_33_179
*1273 FILLER_33_187
*1274 FILLER_33_198
*1275 FILLER_33_21
*1276 FILLER_33_210
*1277 FILLER_33_222
*1278 FILLER_33_225
*1279 FILLER_33_237
*1280 FILLER_33_249
*1281 FILLER_33_261
*1282 FILLER_33_273
*1283 FILLER_33_279
*1284 FILLER_33_281
*1285 FILLER_33_289
*1286 FILLER_33_29
*1287 FILLER_33_297
*1288 FILLER_33_3
*1289 FILLER_33_36
*1290 FILLER_33_42
*1291 FILLER_33_49
*1292 FILLER_33_55
*1293 FILLER_33_57
*1294 FILLER_33_62
*1295 FILLER_33_74
*1296 FILLER_33_86
*1297 FILLER_33_9
*1298 FILLER_33_98
*1299 FILLER_34_10
*1300 FILLER_34_100
*1301 FILLER_34_108
*1302 FILLER_34_115
*1303 FILLER_34_127
*1304 FILLER_34_133
*1305 FILLER_34_138
*1306 FILLER_34_141
*1307 FILLER_34_153
*1308 FILLER_34_165
*1309 FILLER_34_177
*1310 FILLER_34_191
*1311 FILLER_34_195
*1312 FILLER_34_197
*1313 FILLER_34_209
*1314 FILLER_34_215
*1315 FILLER_34_22
*1316 FILLER_34_227
*1317 FILLER_34_239
*1318 FILLER_34_251
*1319 FILLER_34_253
*1320 FILLER_34_260
*1321 FILLER_34_272
*1322 FILLER_34_284
*1323 FILLER_34_288
*1324 FILLER_34_29
*1325 FILLER_34_297
*1326 FILLER_34_3
*1327 FILLER_34_35
*1328 FILLER_34_41
*1329 FILLER_34_48
*1330 FILLER_34_56
*1331 FILLER_34_63
*1332 FILLER_34_71
*1333 FILLER_34_79
*1334 FILLER_34_83
*1335 FILLER_34_85
*1336 FILLER_35_105
*1337 FILLER_35_111
*1338 FILLER_35_113
*1339 FILLER_35_125
*1340 FILLER_35_137
*1341 FILLER_35_14
*1342 FILLER_35_149
*1343 FILLER_35_161
*1344 FILLER_35_167
*1345 FILLER_35_169
*1346 FILLER_35_181
*1347 FILLER_35_193
*1348 FILLER_35_205
*1349 FILLER_35_21
*1350 FILLER_35_217
*1351 FILLER_35_223
*1352 FILLER_35_225
*1353 FILLER_35_233
*1354 FILLER_35_245
*1355 FILLER_35_257
*1356 FILLER_35_269
*1357 FILLER_35_277
*1358 FILLER_35_281
*1359 FILLER_35_287
*1360 FILLER_35_29
*1361 FILLER_35_3
*1362 FILLER_35_34
*1363 FILLER_35_44
*1364 FILLER_35_54
*1365 FILLER_35_57
*1366 FILLER_35_61
*1367 FILLER_35_68
*1368 FILLER_35_78
*1369 FILLER_35_86
*1370 FILLER_35_93
*1371 FILLER_36_109
*1372 FILLER_36_121
*1373 FILLER_36_133
*1374 FILLER_36_139
*1375 FILLER_36_141
*1376 FILLER_36_153
*1377 FILLER_36_161
*1378 FILLER_36_171
*1379 FILLER_36_183
*1380 FILLER_36_195
*1381 FILLER_36_197
*1382 FILLER_36_20
*1383 FILLER_36_209
*1384 FILLER_36_221
*1385 FILLER_36_233
*1386 FILLER_36_245
*1387 FILLER_36_251
*1388 FILLER_36_253
*1389 FILLER_36_265
*1390 FILLER_36_277
*1391 FILLER_36_289
*1392 FILLER_36_29
*1393 FILLER_36_297
*1394 FILLER_36_3
*1395 FILLER_36_33
*1396 FILLER_36_40
*1397 FILLER_36_50
*1398 FILLER_36_60
*1399 FILLER_36_68
*1400 FILLER_36_76
*1401 FILLER_36_85
*1402 FILLER_36_97
*1403 FILLER_37_102
*1404 FILLER_37_110
*1405 FILLER_37_113
*1406 FILLER_37_125
*1407 FILLER_37_129
*1408 FILLER_37_141
*1409 FILLER_37_145
*1410 FILLER_37_15
*1411 FILLER_37_152
*1412 FILLER_37_166
*1413 FILLER_37_169
*1414 FILLER_37_181
*1415 FILLER_37_193
*1416 FILLER_37_199
*1417 FILLER_37_211
*1418 FILLER_37_223
*1419 FILLER_37_225
*1420 FILLER_37_237
*1421 FILLER_37_249
*1422 FILLER_37_25
*1423 FILLER_37_261
*1424 FILLER_37_273
*1425 FILLER_37_279
*1426 FILLER_37_281
*1427 FILLER_37_290
*1428 FILLER_37_298
*1429 FILLER_37_3
*1430 FILLER_37_37
*1431 FILLER_37_47
*1432 FILLER_37_54
*1433 FILLER_37_57
*1434 FILLER_37_63
*1435 FILLER_37_69
*1436 FILLER_37_78
*1437 FILLER_37_90
*1438 FILLER_38_106
*1439 FILLER_38_118
*1440 FILLER_38_126
*1441 FILLER_38_132
*1442 FILLER_38_141
*1443 FILLER_38_148
*1444 FILLER_38_160
*1445 FILLER_38_172
*1446 FILLER_38_180
*1447 FILLER_38_185
*1448 FILLER_38_193
*1449 FILLER_38_197
*1450 FILLER_38_209
*1451 FILLER_38_221
*1452 FILLER_38_233
*1453 FILLER_38_245
*1454 FILLER_38_251
*1455 FILLER_38_253
*1456 FILLER_38_26
*1457 FILLER_38_265
*1458 FILLER_38_277
*1459 FILLER_38_289
*1460 FILLER_38_29
*1461 FILLER_38_297
*1462 FILLER_38_3
*1463 FILLER_38_40
*1464 FILLER_38_54
*1465 FILLER_38_68
*1466 FILLER_38_78
*1467 FILLER_38_85
*1468 FILLER_38_9
*1469 FILLER_39_102
*1470 FILLER_39_110
*1471 FILLER_39_113
*1472 FILLER_39_124
*1473 FILLER_39_134
*1474 FILLER_39_138
*1475 FILLER_39_145
*1476 FILLER_39_157
*1477 FILLER_39_165
*1478 FILLER_39_169
*1479 FILLER_39_181
*1480 FILLER_39_19
*1481 FILLER_39_193
*1482 FILLER_39_205
*1483 FILLER_39_217
*1484 FILLER_39_223
*1485 FILLER_39_225
*1486 FILLER_39_231
*1487 FILLER_39_237
*1488 FILLER_39_249
*1489 FILLER_39_261
*1490 FILLER_39_27
*1491 FILLER_39_273
*1492 FILLER_39_279
*1493 FILLER_39_281
*1494 FILLER_39_293
*1495 FILLER_39_3
*1496 FILLER_39_32
*1497 FILLER_39_41
*1498 FILLER_39_54
*1499 FILLER_39_57
*1500 FILLER_39_65
*1501 FILLER_39_77
*1502 FILLER_39_9
*1503 FILLER_39_95
*1504 FILLER_3_110
*1505 FILLER_3_113
*1506 FILLER_3_131
*1507 FILLER_3_15
*1508 FILLER_3_151
*1509 FILLER_3_163
*1510 FILLER_3_167
*1511 FILLER_3_169
*1512 FILLER_3_181
*1513 FILLER_3_193
*1514 FILLER_3_205
*1515 FILLER_3_217
*1516 FILLER_3_223
*1517 FILLER_3_225
*1518 FILLER_3_237
*1519 FILLER_3_249
*1520 FILLER_3_261
*1521 FILLER_3_273
*1522 FILLER_3_279
*1523 FILLER_3_281
*1524 FILLER_3_293
*1525 FILLER_3_3
*1526 FILLER_3_36
*1527 FILLER_3_48
*1528 FILLER_3_57
*1529 FILLER_3_69
*1530 FILLER_3_93
*1531 FILLER_40_106
*1532 FILLER_40_11
*1533 FILLER_40_116
*1534 FILLER_40_128
*1535 FILLER_40_136
*1536 FILLER_40_141
*1537 FILLER_40_156
*1538 FILLER_40_16
*1539 FILLER_40_160
*1540 FILLER_40_169
*1541 FILLER_40_182
*1542 FILLER_40_194
*1543 FILLER_40_197
*1544 FILLER_40_206
*1545 FILLER_40_218
*1546 FILLER_40_224
*1547 FILLER_40_236
*1548 FILLER_40_248
*1549 FILLER_40_253
*1550 FILLER_40_265
*1551 FILLER_40_277
*1552 FILLER_40_289
*1553 FILLER_40_29
*1554 FILLER_40_297
*1555 FILLER_40_3
*1556 FILLER_40_37
*1557 FILLER_40_45
*1558 FILLER_40_58
*1559 FILLER_40_64
*1560 FILLER_40_74
*1561 FILLER_40_78
*1562 FILLER_40_82
*1563 FILLER_40_85
*1564 FILLER_40_89
*1565 FILLER_40_96
*1566 FILLER_41_110
*1567 FILLER_41_113
*1568 FILLER_41_121
*1569 FILLER_41_131
*1570 FILLER_41_143
*1571 FILLER_41_155
*1572 FILLER_41_167
*1573 FILLER_41_169
*1574 FILLER_41_181
*1575 FILLER_41_193
*1576 FILLER_41_20
*1577 FILLER_41_201
*1578 FILLER_41_205
*1579 FILLER_41_212
*1580 FILLER_41_225
*1581 FILLER_41_233
*1582 FILLER_41_238
*1583 FILLER_41_250
*1584 FILLER_41_262
*1585 FILLER_41_267
*1586 FILLER_41_279
*1587 FILLER_41_28
*1588 FILLER_41_281
*1589 FILLER_41_293
*1590 FILLER_41_3
*1591 FILLER_41_37
*1592 FILLER_41_44
*1593 FILLER_41_54
*1594 FILLER_41_57
*1595 FILLER_41_63
*1596 FILLER_41_77
*1597 FILLER_41_98
*1598 FILLER_42_100
*1599 FILLER_42_112
*1600 FILLER_42_124
*1601 FILLER_42_130
*1602 FILLER_42_137
*1603 FILLER_42_141
*1604 FILLER_42_145
*1605 FILLER_42_15
*1606 FILLER_42_156
*1607 FILLER_42_168
*1608 FILLER_42_180