*SPEF "ieee 1481-1999"
*DESIGN "davidsiaw_stackcalc"
*DATE "11:11:11 Fri 11 11, 1111"
*VENDOR "OpenRCX"
*PROGRAM "Parallel Extraction"
*VERSION "1.0"
*DESIGN_FLOW "NAME_SCOPE LOCAL" "PIN_CAP NONE"
*DIVIDER /
*DELIMITER :
*BUS_DELIMITER []
*T_UNIT 1 NS
*C_UNIT 1 PF
*R_UNIT 1 OHM
*L_UNIT 1 HENRY

*NAME_MAP
*1 io_in[0]
*2 io_in[1]
*3 io_in[2]
*4 io_in[3]
*5 io_in[4]
*6 io_in[5]
*7 io_in[6]
*8 io_in[7]
*9 io_out[0]
*10 io_out[1]
*11 io_out[2]
*12 io_out[3]
*13 io_out[4]
*14 io_out[5]
*15 io_out[6]
*16 io_out[7]
*19 _0000_
*20 _0001_
*21 _0002_
*22 _0003_
*23 _0004_
*24 _0005_
*25 _0006_
*26 _0007_
*27 _0008_
*28 _0009_
*29 _0010_
*30 _0011_
*31 _0012_
*32 _0013_
*33 _0014_
*34 _0015_
*35 _0016_
*36 _0017_
*37 _0018_
*38 _0019_
*39 _0020_
*40 _0021_
*41 _0022_
*42 _0023_
*43 _0024_
*44 _0025_
*45 _0026_
*46 _0027_
*47 _0028_
*48 _0029_
*49 _0030_
*50 _0031_
*51 _0032_
*52 _0033_
*53 _0034_
*54 _0035_
*55 _0036_
*56 _0037_
*57 _0038_
*58 _0039_
*59 _0040_
*60 _0041_
*61 _0042_
*62 _0043_
*63 _0044_
*64 _0045_
*65 _0046_
*66 _0047_
*67 _0048_
*68 _0049_
*69 _0050_
*70 _0051_
*71 _0052_
*72 _0053_
*73 _0054_
*74 _0055_
*75 _0056_
*76 _0057_
*77 _0058_
*78 _0059_
*79 _0060_
*80 _0061_
*81 _0062_
*82 _0063_
*83 _0064_
*84 _0065_
*85 _0066_
*86 _0067_
*87 _0068_
*88 _0069_
*89 _0070_
*90 _0071_
*91 _0072_
*92 _0073_
*93 _0074_
*94 _0075_
*95 _0076_
*96 _0077_
*97 _0078_
*98 _0079_
*99 _0080_
*100 _0081_
*101 _0082_
*102 _0083_
*103 _0084_
*104 _0085_
*105 _0086_
*106 _0087_
*107 _0088_
*108 _0089_
*109 _0090_
*110 _0091_
*111 _0092_
*112 _0093_
*113 _0094_
*114 _0095_
*115 _0096_
*116 _0097_
*117 _0098_
*118 _0099_
*119 _0100_
*120 _0101_
*121 _0102_
*122 _0103_
*123 _0104_
*124 _0105_
*125 _0106_
*126 _0107_
*127 _0108_
*128 _0109_
*129 _0110_
*130 _0111_
*131 _0112_
*132 _0113_
*133 _0114_
*134 _0115_
*135 _0116_
*136 _0117_
*137 _0118_
*138 _0119_
*139 _0120_
*140 _0121_
*141 _0122_
*142 _0123_
*143 _0124_
*144 _0125_
*145 _0126_
*146 _0127_
*147 _0128_
*148 _0129_
*149 _0130_
*150 _0131_
*151 _0132_
*152 _0133_
*153 _0134_
*154 _0135_
*155 _0136_
*156 _0137_
*157 _0138_
*158 _0139_
*159 _0140_
*160 _0141_
*161 _0142_
*162 _0143_
*163 _0144_
*164 _0145_
*165 _0146_
*166 _0147_
*167 _0148_
*168 _0149_
*169 _0150_
*170 _0151_
*171 _0152_
*172 _0153_
*173 _0154_
*174 _0155_
*175 _0156_
*176 _0157_
*177 _0158_
*178 _0159_
*179 _0160_
*180 _0161_
*181 _0162_
*182 _0163_
*183 _0164_
*184 _0165_
*185 _0166_
*186 _0167_
*187 _0168_
*188 _0169_
*189 _0170_
*190 _0171_
*191 _0172_
*192 _0173_
*193 _0174_
*194 _0175_
*195 _0176_
*196 _0177_
*197 _0178_
*198 _0179_
*199 _0180_
*200 _0181_
*201 _0182_
*202 _0183_
*203 _0184_
*204 _0185_
*205 _0186_
*206 _0187_
*207 _0188_
*208 _0189_
*209 _0190_
*210 _0191_
*211 _0192_
*212 _0193_
*213 _0194_
*214 _0195_
*215 _0196_
*216 _0197_
*217 _0198_
*218 _0199_
*219 _0200_
*220 _0201_
*221 _0202_
*222 _0203_
*223 _0204_
*224 _0205_
*225 _0206_
*226 _0207_
*227 _0208_
*228 _0209_
*229 _0210_
*230 _0211_
*231 _0212_
*232 _0213_
*233 _0214_
*234 _0215_
*235 _0216_
*236 _0217_
*237 _0218_
*238 _0219_
*239 _0220_
*240 _0221_
*241 _0222_
*242 _0223_
*243 _0224_
*244 _0225_
*245 _0226_
*246 _0227_
*247 _0228_
*248 _0229_
*249 _0230_
*250 _0231_
*251 _0232_
*252 _0233_
*253 _0234_
*254 _0235_
*255 _0236_
*256 _0237_
*257 _0238_
*258 _0239_
*259 _0240_
*260 _0241_
*261 _0242_
*262 _0243_
*263 _0244_
*264 _0245_
*265 _0246_
*266 _0247_
*267 _0248_
*268 _0249_
*269 _0250_
*270 _0251_
*271 _0252_
*272 _0253_
*273 _0254_
*274 _0255_
*275 _0256_
*276 _0257_
*277 _0258_
*278 _0259_
*279 _0260_
*280 _0261_
*281 _0262_
*282 _0263_
*283 _0264_
*284 _0265_
*285 _0266_
*286 _0267_
*287 _0268_
*288 _0269_
*289 _0270_
*290 _0271_
*291 _0272_
*292 _0273_
*293 _0274_
*294 _0275_
*295 _0276_
*296 _0277_
*297 _0278_
*298 _0279_
*299 _0280_
*300 _0281_
*301 _0282_
*302 _0283_
*303 _0284_
*304 _0285_
*305 _0286_
*306 _0287_
*307 _0288_
*308 _0289_
*309 _0290_
*310 _0291_
*311 _0292_
*312 _0293_
*313 _0294_
*314 _0295_
*315 _0296_
*316 _0297_
*317 _0298_
*318 _0299_
*319 _0300_
*320 _0301_
*321 _0302_
*322 _0303_
*323 _0304_
*324 _0305_
*325 _0306_
*326 _0307_
*327 _0308_
*328 _0309_
*329 _0310_
*330 _0311_
*331 _0312_
*332 _0313_
*333 _0314_
*334 _0315_
*335 _0316_
*336 _0317_
*337 _0318_
*338 _0319_
*339 _0320_
*340 _0321_
*341 _0322_
*342 _0323_
*343 _0324_
*344 _0325_
*345 _0326_
*346 _0327_
*347 _0328_
*348 _0329_
*349 _0330_
*350 _0331_
*351 _0332_
*352 _0333_
*353 _0334_
*354 _0335_
*355 _0336_
*356 _0337_
*357 _0338_
*358 _0339_
*359 _0340_
*360 _0341_
*361 _0342_
*362 _0343_
*363 _0344_
*364 _0345_
*365 _0346_
*366 _0347_
*367 _0348_
*368 _0349_
*369 _0350_
*370 _0351_
*371 _0352_
*372 _0353_
*373 _0354_
*374 _0355_
*375 _0356_
*376 _0357_
*377 _0358_
*378 _0359_
*379 _0360_
*380 _0361_
*381 _0362_
*382 _0363_
*383 _0364_
*384 _0365_
*385 _0366_
*386 _0367_
*387 _0368_
*388 _0369_
*389 _0370_
*390 _0371_
*391 _0372_
*392 _0373_
*393 _0374_
*394 _0375_
*395 _0376_
*396 _0377_
*397 _0378_
*398 _0379_
*399 _0380_
*400 _0381_
*401 _0382_
*402 _0383_
*403 _0384_
*404 _0385_
*405 _0386_
*406 _0387_
*407 _0388_
*408 _0389_
*409 _0390_
*410 _0391_
*411 _0392_
*412 _0393_
*413 _0394_
*414 _0395_
*415 _0396_
*416 _0397_
*417 _0398_
*418 _0399_
*419 _0400_
*420 _0401_
*421 _0402_
*422 _0403_
*423 _0404_
*424 _0405_
*425 _0406_
*426 _0407_
*427 _0408_
*428 _0409_
*429 _0410_
*430 _0411_
*431 _0412_
*432 _0413_
*433 _0414_
*434 _0415_
*435 _0416_
*436 _0417_
*437 _0418_
*438 _0419_
*439 _0420_
*440 _0421_
*441 _0422_
*442 _0423_
*443 _0424_
*444 _0425_
*445 _0426_
*446 _0427_
*447 _0428_
*448 _0429_
*449 _0430_
*450 _0431_
*451 _0432_
*452 _0433_
*453 _0434_
*454 _0435_
*455 _0436_
*456 _0437_
*457 _0438_
*458 _0439_
*459 _0440_
*460 _0441_
*461 _0442_
*462 _0443_
*463 _0444_
*464 _0445_
*465 _0446_
*466 _0447_
*467 _0448_
*468 _0449_
*469 _0450_
*470 _0451_
*471 _0452_
*472 _0453_
*473 _0454_
*474 _0455_
*475 _0456_
*476 _0457_
*477 _0458_
*478 _0459_
*479 _0460_
*480 _0461_
*481 _0462_
*482 _0463_
*483 _0464_
*484 _0465_
*485 _0466_
*486 _0467_
*487 _0468_
*488 _0469_
*489 _0470_
*490 _0471_
*491 _0472_
*492 _0473_
*493 _0474_
*494 _0475_
*495 _0476_
*496 _0477_
*497 _0478_
*498 _0479_
*499 _0480_
*500 _0481_
*501 _0482_
*502 _0483_
*503 _0484_
*504 _0485_
*505 _0486_
*506 _0487_
*507 _0488_
*508 _0489_
*509 _0490_
*510 _0491_
*511 _0492_
*512 _0493_
*513 _0494_
*514 _0495_
*515 _0496_
*516 _0497_
*517 _0498_
*518 _0499_
*519 _0500_
*520 _0501_
*521 _0502_
*522 _0503_
*523 _0504_
*524 _0505_
*525 _0506_
*526 _0507_
*527 _0508_
*528 _0509_
*529 _0510_
*530 _0511_
*531 _0512_
*532 _0513_
*533 _0514_
*534 _0515_
*535 _0516_
*536 _0517_
*537 _0518_
*538 _0519_
*539 _0520_
*540 _0521_
*541 _0522_
*542 _0523_
*543 _0524_
*544 _0525_
*545 _0526_
*546 _0527_
*547 _0528_
*548 _0529_
*549 _0530_
*550 _0531_
*551 _0532_
*552 _0533_
*553 _0534_
*554 _0535_
*555 _0536_
*556 _0537_
*557 _0538_
*558 _0539_
*559 _0540_
*560 _0541_
*561 _0542_
*562 _0543_
*563 _0544_
*564 _0545_
*565 _0546_
*566 _0547_
*567 _0548_
*568 _0549_
*569 _0550_
*570 _0551_
*571 _0552_
*572 _0553_
*573 _0554_
*574 _0555_
*575 _0556_
*576 _0557_
*577 _0558_
*578 _0559_
*579 _0560_
*580 _0561_
*581 _0562_
*582 _0563_
*583 _0564_
*584 _0565_
*585 _0566_
*586 _0567_
*587 _0568_
*588 _0569_
*589 _0570_
*590 _0571_
*591 _0572_
*592 _0573_
*593 _0574_
*594 _0575_
*595 _0576_
*596 _0577_
*597 _0578_
*598 _0579_
*599 _0580_
*600 _0581_
*601 _0582_
*602 _0583_
*603 _0584_
*604 _0585_
*605 _0586_
*606 _0587_
*607 _0588_
*608 _0589_
*609 _0590_
*610 _0591_
*611 _0592_
*612 _0593_
*613 _0594_
*614 _0595_
*615 _0596_
*616 _0597_
*617 _0598_
*618 _0599_
*619 _0600_
*620 _0601_
*621 _0602_
*622 _0603_
*623 _0604_
*624 _0605_
*625 _0606_
*626 _0607_
*627 _0608_
*628 _0609_
*629 _0610_
*630 _0611_
*631 _0612_
*632 _0613_
*633 _0614_
*634 _0615_
*635 _0616_
*636 _0617_
*637 _0618_
*638 _0619_
*639 _0620_
*640 _0621_
*641 _0622_
*642 _0623_
*643 _0624_
*644 _0625_
*645 _0626_
*646 _0627_
*647 _0628_
*648 _0629_
*649 _0630_
*650 _0631_
*651 _0632_
*652 _0633_
*653 _0634_
*654 _0635_
*655 _0636_
*656 _0637_
*657 _0638_
*658 _0639_
*659 _0640_
*660 _0641_
*661 _0642_
*662 _0643_
*663 _0644_
*664 _0645_
*665 _0646_
*666 _0647_
*667 _0648_
*668 _0649_
*669 _0650_
*670 _0651_
*671 _0652_
*672 _0653_
*673 _0654_
*674 _0655_
*675 _0656_
*676 _0657_
*677 _0658_
*678 _0659_
*679 _0660_
*680 _0661_
*681 _0662_
*682 _0663_
*683 _0664_
*684 _0665_
*685 _0666_
*686 _0667_
*687 _0668_
*688 _0669_
*689 _0670_
*690 _0671_
*691 _0672_
*692 _0673_
*693 _0674_
*694 _0675_
*695 _0676_
*696 _0677_
*697 _0678_
*698 _0679_
*699 _0680_
*700 _0681_
*701 _0682_
*702 _0683_
*703 _0684_
*704 _0685_
*705 _0686_
*706 _0687_
*707 _0688_
*708 _0689_
*709 _0690_
*710 _0691_
*711 _0692_
*712 _0693_
*713 _0694_
*714 _0695_
*715 _0696_
*716 _0697_
*717 _0698_
*718 _0699_
*719 _0700_
*720 _0701_
*721 _0702_
*722 _0703_
*723 _0704_
*724 _0705_
*725 _0706_
*726 _0707_
*727 _0708_
*728 _0709_
*729 _0710_
*730 _0711_
*731 _0712_
*732 _0713_
*733 _0714_
*734 _0715_
*735 _0716_
*736 _0717_
*737 _0718_
*738 _0719_
*739 _0720_
*740 _0721_
*741 _0722_
*742 _0723_
*743 _0724_
*744 _0725_
*745 _0726_
*746 _0727_
*747 _0728_
*748 _0729_
*749 _0730_
*750 _0731_
*751 _0732_
*752 _0733_
*753 _0734_
*754 _0735_
*755 _0736_
*756 _0737_
*757 _0738_
*758 _0739_
*759 _0740_
*760 _0741_
*761 _0742_
*762 _0743_
*763 _0744_
*764 _0745_
*765 _0746_
*766 _0747_
*767 _0748_
*768 _0749_
*769 _0750_
*770 _0751_
*771 _0752_
*772 _0753_
*773 _0754_
*774 _0755_
*775 _0756_
*776 _0757_
*777 _0758_
*778 _0759_
*779 _0760_
*780 _0761_
*781 _0762_
*782 _0763_
*783 _0764_
*784 _0765_
*785 _0766_
*786 _0767_
*787 _0768_
*788 _0769_
*789 _0770_
*790 _0771_
*791 _0772_
*792 _0773_
*793 _0774_
*794 _0775_
*795 _0776_
*796 _0777_
*797 _0778_
*798 _0779_
*799 _0780_
*800 _0781_
*801 _0782_
*802 _0783_
*803 _0784_
*804 _0785_
*805 _0786_
*806 _0787_
*807 _0788_
*808 _0789_
*809 _0790_
*810 _0791_
*811 _0792_
*812 _0793_
*813 _0794_
*814 _0795_
*815 _0796_
*816 _0797_
*817 _0798_
*818 _0799_
*819 _0800_
*820 _0801_
*821 _0802_
*822 _0803_
*823 _0804_
*824 _0805_
*825 _0806_
*826 _0807_
*827 _0808_
*828 _0809_
*829 _0810_
*830 _0811_
*831 _0812_
*832 _0813_
*833 _0814_
*834 _0815_
*835 _0816_
*836 _0817_
*837 _0818_
*838 _0819_
*839 _0820_
*840 _0821_
*841 _0822_
*842 _0823_
*843 _0824_
*844 _0825_
*845 _0826_
*846 _0827_
*847 _0828_
*848 _0829_
*849 _0830_
*850 _0831_
*851 _0832_
*852 _0833_
*853 _0834_
*854 _0835_
*855 _0836_
*856 _0837_
*857 _0838_
*858 _0839_
*859 _0840_
*860 _0841_
*861 _0842_
*862 _0843_
*863 _0844_
*864 _0845_
*865 _0846_
*866 _0847_
*867 _0848_
*868 _0849_
*869 _0850_
*870 _0851_
*871 _0852_
*872 _0853_
*873 _0854_
*874 _0855_
*875 _0856_
*876 _0857_
*877 _0858_
*878 _0859_
*879 _0860_
*880 _0861_
*881 _0862_
*882 _0863_
*883 _0864_
*884 _0865_
*885 _0866_
*886 _0867_
*887 _0868_
*888 _0869_
*889 _0870_
*890 _0871_
*891 _0872_
*892 _0873_
*893 _0874_
*894 _0875_
*895 _0876_
*896 _0877_
*897 _0878_
*898 _0879_
*899 _0880_
*900 _0881_
*901 _0882_
*902 _0883_
*903 _0884_
*904 _0885_
*905 _0886_
*906 _0887_
*907 _0888_
*908 _0889_
*909 _0890_
*910 _0891_
*911 _0892_
*912 _0893_
*913 _0894_
*914 _0895_
*915 _0896_
*916 _0897_
*917 _0898_
*918 _0899_
*919 _0900_
*920 _0901_
*921 _0902_
*922 _0903_
*923 _0904_
*924 _0905_
*925 _0906_
*926 _0907_
*927 _0908_
*928 _0909_
*929 _0910_
*930 _0911_
*931 _0912_
*932 _0913_
*933 _0914_
*934 _0915_
*935 _0916_
*936 _0917_
*937 _0918_
*938 _0919_
*939 _0920_
*940 _0921_
*941 _0922_
*942 _0923_
*943 _0924_
*944 _0925_
*945 _0926_
*946 _0927_
*947 _0928_
*948 _0929_
*949 _0930_
*950 _0931_
*951 _0932_
*952 _0933_
*953 _0934_
*954 _0935_
*955 _0936_
*956 _0937_
*957 clknet_0_io_in[0]
*958 clknet_4_0_0_io_in[0]
*959 clknet_4_10_0_io_in[0]
*960 clknet_4_11_0_io_in[0]
*961 clknet_4_12_0_io_in[0]
*962 clknet_4_13_0_io_in[0]
*963 clknet_4_14_0_io_in[0]
*964 clknet_4_15_0_io_in[0]
*965 clknet_4_1_0_io_in[0]
*966 clknet_4_2_0_io_in[0]
*967 clknet_4_3_0_io_in[0]
*968 clknet_4_4_0_io_in[0]
*969 clknet_4_5_0_io_in[0]
*970 clknet_4_6_0_io_in[0]
*971 clknet_4_7_0_io_in[0]
*972 clknet_4_8_0_io_in[0]
*973 clknet_4_9_0_io_in[0]
*974 cpu\.carry_flag
*975 cpu\.current_op\[0\]
*976 cpu\.current_op\[1\]
*977 cpu\.current_op\[2\]
*978 cpu\.current_op\[3\]
*979 cpu\.error_flag
*980 cpu\.fetch_flag
*981 cpu\.input_select\[1\]
*982 cpu\.input_select\[2\]
*983 cpu\.input_select\[3\]
*984 cpu\.input_select\[4\]
*985 cpu\.input_select\[5\]
*986 cpu\.input_select\[6\]
*987 cpu\.op_counter\[0\]
*988 cpu\.op_counter\[1\]
*989 cpu\.op_counter\[2\]
*990 cpu\.out_dff\[0\]
*991 cpu\.out_dff\[1\]
*992 cpu\.out_dff\[2\]
*993 cpu\.out_dff\[3\]
*994 cpu\.out_dff\[4\]
*995 cpu\.out_dff\[5\]
*996 cpu\.out_dff\[6\]
*997 cpu\.out_dff\[7\]
*998 cpu\.outputter\.b\[0\]
*999 cpu\.outputter\.b\[1\]
*1000 cpu\.outputter\.b\[2\]
*1001 cpu\.outputter\.b\[3\]
*1002 cpu\.outputter\.b\[4\]
*1003 cpu\.outputter\.b\[5\]
*1004 cpu\.outputter\.b\[6\]
*1005 cpu\.outputter\.c\[0\]
*1006 cpu\.outputter\.c\[1\]
*1007 cpu\.outputter\.c\[2\]
*1008 cpu\.outputter\.c\[3\]
*1009 cpu\.outputter\.c\[4\]
*1010 cpu\.outputter\.c\[5\]
*1011 cpu\.outputter\.c\[6\]
*1012 cpu\.outputter\.d\[0\]
*1013 cpu\.outputter\.d\[1\]
*1014 cpu\.outputter\.d\[2\]
*1015 cpu\.outputter\.d\[3\]
*1016 cpu\.outputter\.d\[4\]
*1017 cpu\.outputter\.d\[5\]
*1018 cpu\.outputter\.d\[6\]
*1019 cpu\.outputter\.d\[7\]
*1020 cpu\.ram\.address\[0\]
*1021 cpu\.ram\.address\[1\]
*1022 cpu\.ram\.address\[2\]
*1023 cpu\.ram\.address\[3\]
*1024 cpu\.ram\.data_out\[0\]
*1025 cpu\.ram\.data_out\[1\]
*1026 cpu\.ram\.data_out\[2\]
*1027 cpu\.ram\.data_out\[3\]
*1028 cpu\.ram\.memory_cell0\[0\]
*1029 cpu\.ram\.memory_cell0\[1\]
*1030 cpu\.ram\.memory_cell0\[2\]
*1031 cpu\.ram\.memory_cell0\[3\]
*1032 cpu\.ram\.memory_cell1\[0\]
*1033 cpu\.ram\.memory_cell1\[1\]
*1034 cpu\.ram\.memory_cell1\[2\]
*1035 cpu\.ram\.memory_cell1\[3\]
*1036 cpu\.ram\.memory_cell2\[0\]
*1037 cpu\.ram\.memory_cell2\[1\]
*1038 cpu\.ram\.memory_cell2\[2\]
*1039 cpu\.ram\.memory_cell2\[3\]
*1040 cpu\.ram\.memory_cell3\[0\]
*1041 cpu\.ram\.memory_cell3\[1\]
*1042 cpu\.ram\.memory_cell3\[2\]
*1043 cpu\.ram\.memory_cell3\[3\]
*1044 cpu\.ram\.memory_cell4\[0\]
*1045 cpu\.ram\.memory_cell4\[1\]
*1046 cpu\.ram\.memory_cell4\[2\]
*1047 cpu\.ram\.memory_cell4\[3\]
*1048 cpu\.ram\.memory_cell5\[0\]
*1049 cpu\.ram\.memory_cell5\[1\]
*1050 cpu\.ram\.memory_cell5\[2\]
*1051 cpu\.ram\.memory_cell5\[3\]
*1052 cpu\.ram\.memory_cell6\[0\]
*1053 cpu\.ram\.memory_cell6\[1\]
*1054 cpu\.ram\.memory_cell6\[2\]
*1055 cpu\.ram\.memory_cell6\[3\]
*1056 cpu\.ram\.memory_cell7\[0\]
*1057 cpu\.ram\.memory_cell7\[1\]
*1058 cpu\.ram\.memory_cell7\[2\]
*1059 cpu\.ram\.memory_cell7\[3\]
*1060 cpu\.ram\.memory_cell8\[0\]
*1061 cpu\.ram\.memory_cell8\[1\]
*1062 cpu\.ram\.memory_cell8\[2\]
*1063 cpu\.ram\.memory_cell8\[3\]
*1064 cpu\.ram\.memory_cell9\[0\]
*1065 cpu\.ram\.memory_cell9\[1\]
*1066 cpu\.ram\.memory_cell9\[2\]
*1067 cpu\.ram\.memory_cell9\[3\]
*1068 cpu\.ram\.memory_cella\[0\]
*1069 cpu\.ram\.memory_cella\[1\]
*1070 cpu\.ram\.memory_cella\[2\]
*1071 cpu\.ram\.memory_cella\[3\]
*1072 cpu\.ram\.memory_cellb\[0\]
*1073 cpu\.ram\.memory_cellb\[1\]
*1074 cpu\.ram\.memory_cellb\[2\]
*1075 cpu\.ram\.memory_cellb\[3\]
*1076 cpu\.ram\.memory_cellc\[0\]
*1077 cpu\.ram\.memory_cellc\[1\]
*1078 cpu\.ram\.memory_cellc\[2\]
*1079 cpu\.ram\.memory_cellc\[3\]
*1080 cpu\.ram\.memory_celld\[0\]
*1081 cpu\.ram\.memory_celld\[1\]
*1082 cpu\.ram\.memory_celld\[2\]
*1083 cpu\.ram\.memory_celld\[3\]
*1084 cpu\.ram\.memory_celle\[0\]
*1085 cpu\.ram\.memory_celle\[1\]
*1086 cpu\.ram\.memory_celle\[2\]
*1087 cpu\.ram\.memory_celle\[3\]
*1088 cpu\.ram\.memory_cellf\[0\]
*1089 cpu\.ram\.memory_cellf\[1\]
*1090 cpu\.ram\.memory_cellf\[2\]
*1091 cpu\.ram\.memory_cellf\[3\]
*1092 cpu\.ram_mode\[0\]
*1093 cpu\.ram_mode\[2\]
*1094 cpu\.ram_mode\[3\]
*1095 cpu\.result_register\[0\]
*1096 cpu\.result_register\[1\]
*1097 cpu\.result_register\[2\]
*1098 cpu\.result_register\[3\]
*1099 cpu\.result_register\[4\]
*1100 cpu\.result_register\[5\]
*1101 cpu\.result_register\[6\]
*1102 cpu\.result_register\[7\]
*1103 cpu\.stack\.a0\.q\[2\]
*1104 cpu\.stack\.a0\.q\[3\]
*1105 cpu\.stack\.a0\.q\[4\]
*1106 cpu\.stack\.a0\.q\[5\]
*1107 cpu\.stack\.a0\.q\[6\]
*1108 cpu\.stack\.a0\.q\[7\]
*1109 cpu\.stack\.a1\.q\[2\]
*1110 cpu\.stack\.a1\.q\[3\]
*1111 cpu\.stack\.a1\.q\[4\]
*1112 cpu\.stack\.a1\.q\[5\]
*1113 cpu\.stack\.a1\.q\[6\]
*1114 cpu\.stack\.a1\.q\[7\]
*1115 cpu\.stack\.a2\.q\[2\]
*1116 cpu\.stack\.a2\.q\[3\]
*1117 cpu\.stack\.a2\.q\[4\]
*1118 cpu\.stack\.a2\.q\[5\]
*1119 cpu\.stack\.a2\.q\[6\]
*1120 cpu\.stack\.a2\.q\[7\]
*1121 cpu\.stack\.a3\.q\[2\]
*1122 cpu\.stack\.a3\.q\[3\]
*1123 cpu\.stack\.a3\.q\[4\]
*1124 cpu\.stack\.a3\.q\[5\]
*1125 cpu\.stack\.a3\.q\[6\]
*1126 cpu\.stack\.a3\.q\[7\]
*1127 cpu\.stack_mode\[0\]
*1128 cpu\.stack_mode\[1\]
*1129 cpu\.stack_mode\[2\]
*1130 cpu\.stack_mode\[3\]
*1131 cpu\.stack_mode\[5\]
*1132 cpu\.stack_mode\[6\]
*1133 net1
*1134 net2
*1135 net3
*1136 net4
*1137 net5
*1138 net6
*1139 net7
*1140 ANTENNA_1
*1141 FILLER_0_101
*1142 FILLER_0_109
*1143 FILLER_0_113
*1144 FILLER_0_119
*1145 FILLER_0_126
*1146 FILLER_0_130
*1147 FILLER_0_137
*1148 FILLER_0_14
*1149 FILLER_0_141
*1150 FILLER_0_146
*1151 FILLER_0_152
*1152 FILLER_0_157
*1153 FILLER_0_165
*1154 FILLER_0_169
*1155 FILLER_0_174
*1156 FILLER_0_186
*1157 FILLER_0_193
*1158 FILLER_0_197
*1159 FILLER_0_209
*1160 FILLER_0_221
*1161 FILLER_0_225
*1162 FILLER_0_23
*1163 FILLER_0_237
*1164 FILLER_0_249
*1165 FILLER_0_253
*1166 FILLER_0_265
*1167 FILLER_0_27
*1168 FILLER_0_277
*1169 FILLER_0_281
*1170 FILLER_0_29
*1171 FILLER_0_293
*1172 FILLER_0_3
*1173 FILLER_0_35
*1174 FILLER_0_43
*1175 FILLER_0_48
*1176 FILLER_0_57
*1177 FILLER_0_64
*1178 FILLER_0_72
*1179 FILLER_0_82
*1180 FILLER_0_85
*1181 FILLER_0_93
*1182 FILLER_10_102
*1183 FILLER_10_110
*1184 FILLER_10_116
*1185 FILLER_10_12
*1186 FILLER_10_125
*1187 FILLER_10_138
*1188 FILLER_10_141
*1189 FILLER_10_150
*1190 FILLER_10_157
*1191 FILLER_10_164
*1192 FILLER_10_171
*1193 FILLER_10_179
*1194 FILLER_10_186
*1195 FILLER_10_193
*1196 FILLER_10_197
*1197 FILLER_10_20
*1198 FILLER_10_208
*1199 FILLER_10_230
*1200 FILLER_10_250
*1201 FILLER_10_253
*1202 FILLER_10_26
*1203 FILLER_10_262
*1204 FILLER_10_274
*1205 FILLER_10_286
*1206 FILLER_10_29
*1207 FILLER_10_298
*1208 FILLER_10_3
*1209 FILLER_10_38
*1210 FILLER_10_51
*1211 FILLER_10_57
*1212 FILLER_10_62
*1213 FILLER_10_70
*1214 FILLER_10_76
*1215 FILLER_10_82
*1216 FILLER_10_85
*1217 FILLER_10_94
*1218 FILLER_11_104
*1219 FILLER_11_113
*1220 FILLER_11_120
*1221 FILLER_11_126
*1222 FILLER_11_132
*1223 FILLER_11_145
*1224 FILLER_11_16
*1225 FILLER_11_165
*1226 FILLER_11_169
*1227 FILLER_11_177
*1228 FILLER_11_183
*1229 FILLER_11_200
*1230 FILLER_11_211
*1231 FILLER_11_222
*1232 FILLER_11_225
*1233 FILLER_11_236
*1234 FILLER_11_25
*1235 FILLER_11_256
*1236 FILLER_11_276
*1237 FILLER_11_281
*1238 FILLER_11_293
*1239 FILLER_11_3
*1240 FILLER_11_36
*1241 FILLER_11_43
*1242 FILLER_11_54
*1243 FILLER_11_57
*1244 FILLER_11_68
*1245 FILLER_11_72
*1246 FILLER_11_78
*1247 FILLER_11_86
*1248 FILLER_11_9
*1249 FILLER_11_92
*1250 FILLER_12_103
*1251 FILLER_12_117
*1252 FILLER_12_12
*1253 FILLER_12_125
*1254 FILLER_12_133
*1255 FILLER_12_139
*1256 FILLER_12_141
*1257 FILLER_12_150
*1258 FILLER_12_158
*1259 FILLER_12_180
*1260 FILLER_12_187
*1261 FILLER_12_194
*1262 FILLER_12_197
*1263 FILLER_12_20
*1264 FILLER_12_208
*1265 FILLER_12_219
*1266 FILLER_12_227
*1267 FILLER_12_237
*1268 FILLER_12_247
*1269 FILLER_12_251
*1270 FILLER_12_253
*1271 FILLER_12_26
*1272 FILLER_12_261
*1273 FILLER_12_273
*1274 FILLER_12_285
*1275 FILLER_12_29
*1276 FILLER_12_297
*1277 FILLER_12_3
*1278 FILLER_12_39
*1279 FILLER_12_54
*1280 FILLER_12_66
*1281 FILLER_12_77
*1282 FILLER_12_83
*1283 FILLER_12_85
*1284 FILLER_13_110
*1285 FILLER_13_113
*1286 FILLER_13_134
*1287 FILLER_13_142
*1288 FILLER_13_15
*1289 FILLER_13_160
*1290 FILLER_13_169
*1291 FILLER_13_175
*1292 FILLER_13_183
*1293 FILLER_13_201
*1294 FILLER_13_205
*1295 FILLER_13_211
*1296 FILLER_13_222
*1297 FILLER_13_225
*1298 FILLER_13_230
*1299 FILLER_13_250
*1300 FILLER_13_258
*1301 FILLER_13_275
*1302 FILLER_13_279
*1303 FILLER_13_281
*1304 FILLER_13_293
*1305 FILLER_13_3
*1306 FILLER_13_31
*1307 FILLER_13_35
*1308 FILLER_13_41
*1309 FILLER_13_51
*1310 FILLER_13_55
*1311 FILLER_13_57
*1312 FILLER_13_62
*1313 FILLER_13_7
*1314 FILLER_13_74
*1315 FILLER_13_82
*1316 FILLER_13_90
*1317 FILLER_13_97
*1318 FILLER_14_106
*1319 FILLER_14_12
*1320 FILLER_14_123
*1321 FILLER_14_138
*1322 FILLER_14_141
*1323 FILLER_14_154
*1324 FILLER_14_162
*1325 FILLER_14_180
*1326 FILLER_14_188
*1327 FILLER_14_194
*1328 FILLER_14_197
*1329 FILLER_14_208
*1330 FILLER_14_216
*1331 FILLER_14_22
*1332 FILLER_14_233
*1333 FILLER_14_245
*1334 FILLER_14_251
*1335 FILLER_14_253
*1336 FILLER_14_271
*1337 FILLER_14_283
*1338 FILLER_14_29
*1339 FILLER_14_295
*1340 FILLER_14_3
*1341 FILLER_14_39
*1342 FILLER_14_48
*1343 FILLER_14_59
*1344 FILLER_14_7
*1345 FILLER_14_70
*1346 FILLER_14_74
*1347 FILLER_14_82
*1348 FILLER_14_85
*1349 FILLER_14_98
*1350 FILLER_15_110
*1351 FILLER_15_113
*1352 FILLER_15_119
*1353 FILLER_15_139
*1354 FILLER_15_148
*1355 FILLER_15_160
*1356 FILLER_15_169
*1357 FILLER_15_178
*1358 FILLER_15_187
*1359 FILLER_15_195
*1360 FILLER_15_20
*1361 FILLER_15_210
*1362 FILLER_15_221
*1363 FILLER_15_225
*1364 FILLER_15_235
*1365 FILLER_15_247
*1366 FILLER_15_258
*1367 FILLER_15_269
*1368 FILLER_15_277
*1369 FILLER_15_28
*1370 FILLER_15_281
*1371 FILLER_15_293
*1372 FILLER_15_3
*1373 FILLER_15_34
*1374 FILLER_15_46
*1375 FILLER_15_50
*1376 FILLER_15_54
*1377 FILLER_15_57
*1378 FILLER_15_67
*1379 FILLER_15_75
*1380 FILLER_15_85
*1381 FILLER_15_9
*1382 FILLER_15_97
*1383 FILLER_16_110
*1384 FILLER_16_117
*1385 FILLER_16_12
*1386 FILLER_16_126
*1387 FILLER_16_138
*1388 FILLER_16_141
*1389 FILLER_16_145
*1390 FILLER_16_162
*1391 FILLER_16_171
*1392 FILLER_16_175
*1393 FILLER_16_182
*1394 FILLER_16_19
*1395 FILLER_16_191
*1396 FILLER_16_195
*1397 FILLER_16_197
*1398 FILLER_16_208
*1399 FILLER_16_216
*1400 FILLER_16_220
*1401 FILLER_16_232
*1402 FILLER_16_242
*1403 FILLER_16_250
*1404 FILLER_16_253
*1405 FILLER_16_259
*1406 FILLER_16_26
*1407 FILLER_16_268
*1408 FILLER_16_278
*1409 FILLER_16_288
*1410 FILLER_16_29
*1411 FILLER_16_296
*1412 FILLER_16_3
*1413 FILLER_16_39
*1414 FILLER_16_43
*1415 FILLER_16_52
*1416 FILLER_16_65
*1417 FILLER_16_81
*1418 FILLER_16_85
*1419 FILLER_16_99
*1420 FILLER_17_106
*1421 FILLER_17_113
*1422 FILLER_17_124
*1423 FILLER_17_128
*1424 FILLER_17_132
*1425 FILLER_17_152
*1426 FILLER_17_166
*1427 FILLER_17_169
*1428 FILLER_17_176
*1429 FILLER_17_184
*1430 FILLER_17_202
*1431 FILLER_17_21
*1432 FILLER_17_213
*1433 FILLER_17_221
*1434 FILLER_17_225
*1435 FILLER_17_233
*1436 FILLER_17_237
*1437 FILLER_17_254
*1438 FILLER_17_276
*1439 FILLER_17_281
*1440 FILLER_17_293
*1441 FILLER_17_3
*1442 FILLER_17_34
*1443 FILLER_17_38
*1444 FILLER_17_47
*1445 FILLER_17_54
*1446 FILLER_17_57
*1447 FILLER_17_66
*1448 FILLER_17_73
*1449 FILLER_17_84
*1450 FILLER_17_9
*1451 FILLER_17_90
*1452 FILLER_17_97
*1453 FILLER_18_101
*1454 FILLER_18_105
*1455 FILLER_18_109
*1456 FILLER_18_12
*1457 FILLER_18_120
*1458 FILLER_18_129
*1459 FILLER_18_138
*1460 FILLER_18_141
*1461 FILLER_18_155
*1462 FILLER_18_167
*1463 FILLER_18_173
*1464 FILLER_18_182
*1465 FILLER_18_19
*1466 FILLER_18_190
*1467 FILLER_18_194
*1468 FILLER_18_197
*1469 FILLER_18_203
*1470 FILLER_18_223
*1471 FILLER_18_231
*1472 FILLER_18_239
*1473 FILLER_18_248
*1474 FILLER_18_253
*1475 FILLER_18_259
*1476 FILLER_18_26
*1477 FILLER_18_268
*1478 FILLER_18_276
*1479 FILLER_18_288
*1480 FILLER_18_29
*1481 FILLER_18_296
*1482 FILLER_18_3
*1483 FILLER_18_35
*1484 FILLER_18_48
*1485 FILLER_18_52
*1486 FILLER_18_56
*1487 FILLER_18_69
*1488 FILLER_18_81
*1489 FILLER_18_85
*1490 FILLER_18_90
*1491 FILLER_19_105
*1492 FILLER_19_111
*1493 FILLER_19_113
*1494 FILLER_19_120
*1495 FILLER_19_127
*1496 FILLER_19_13
*1497 FILLER_19_138
*1498 FILLER_19_147
*1499 FILLER_19_155
*1500 FILLER_19_164
*1501 FILLER_19_169
*1502 FILLER_19_187
*1503 FILLER_19_207
*1504 FILLER_19_219
*1505 FILLER_19_22
*1506 FILLER_19_223
*1507 FILLER_19_225
*1508 FILLER_19_235
*1509 FILLER_19_243
*1510 FILLER_19_250
*1511 FILLER_19_258
*1512 FILLER_19_277
*1513 FILLER_19_281
*1514 FILLER_19_29
*1515 FILLER_19_293
*1516 FILLER_19_3
*1517 FILLER_19_37
*1518 FILLER_19_43
*1519 FILLER_19_54
*1520 FILLER_19_57
*1521 FILLER_19_66
*1522 FILLER_19_79
*1523 FILLER_19_92
*1524 FILLER_19_96
*1525 FILLER_1_101
*1526 FILLER_1_110
*1527 FILLER_1_113
*1528 FILLER_1_135
*1529 FILLER_1_145
*1530 FILLER_1_155
*1531 FILLER_1_161
*1532 FILLER_1_166
*1533 FILLER_1_169
*1534 FILLER_1_174
*1535 FILLER_1_194
*1536 FILLER_1_206
*1537 FILLER_1_21
*1538 FILLER_1_218
*1539 FILLER_1_225
*1540 FILLER_1_237
*1541 FILLER_1_249
*1542 FILLER_1_261
*1543 FILLER_1_273
*1544 FILLER_1_279
*1545 FILLER_1_281
*1546 FILLER_1_293
*1547 FILLER_1_3
*1548 FILLER_1_33
*1549 FILLER_1_37
*1550 FILLER_1_54
*1551 FILLER_1_57
*1552 FILLER_1_81
*1553 FILLER_1_92
*1554 FILLER_20_105
*1555 FILLER_20_125
*1556 FILLER_20_136
*1557 FILLER_20_141
*1558 FILLER_20_15
*1559 FILLER_20_159
*1560 FILLER_20_168
*1561 FILLER_20_174
*1562 FILLER_20_183
*1563 FILLER_20_190
*1564 FILLER_20_197
*1565 FILLER_20_207
*1566 FILLER_20_214
*1567 FILLER_20_234
*1568 FILLER_20_248
*1569 FILLER_20_253
*1570 FILLER_20_26
*1571 FILLER_20_261
*1572 FILLER_20_269
*1573 FILLER_20_281
*1574 FILLER_20_29
*1575 FILLER_20_293
*1576 FILLER_20_3
*1577 FILLER_20_44
*1578 FILLER_20_52
*1579 FILLER_20_62
*1580 FILLER_20_75
*1581 FILLER_20_82
*1582 FILLER_20_85
*1583 FILLER_20_96
*1584 FILLER_21_102
*1585 FILLER_21_106
*1586 FILLER_21_110
*1587 FILLER_21_113
*1588 FILLER_21_128
*1589 FILLER_21_137
*1590 FILLER_21_157
*1591 FILLER_21_164
*1592 FILLER_21_169
*1593 FILLER_21_187
*1594 FILLER_21_194
*1595 FILLER_21_20
*1596 FILLER_21_200
*1597 FILLER_21_217
*1598 FILLER_21_223
*1599 FILLER_21_225
*1600 FILLER_21_237
*1601 FILLER_21_257
*1602 FILLER_21_269
*1603 FILLER_21_277
*1604 FILLER_21_281
*1605 FILLER_21_293
*1606 FILLER_21_3
*1607 FILLER_21_32
*1608 FILLER_21_36
*1609 FILLER_21_44
*1610 FILLER_21_54
*1611 FILLER_21_57
*1612 FILLER_21_66
*1613 FILLER_21_74
*1614 FILLER_21_83
*1615 FILLER_21_91
*1616 FILLER_22_106
*1617 FILLER_22_11
*1618 FILLER_22_117
*1619 FILLER_22_133
*1620 FILLER_22_139
*1621 FILLER_22_141
*1622 FILLER_22_148
*1623 FILLER_22_154
*1624 FILLER_22_166
*1625 FILLER_22_178
*1626 FILLER_22_18
*1627 FILLER_22_185
*1628 FILLER_22_192
*1629 FILLER_22_197
*1630 FILLER_22_208
*1631 FILLER_22_212
*1632 FILLER_22_229
*1633 FILLER_22_241
*1634 FILLER_22_249
*1635 FILLER_22_253
*1636 FILLER_22_26
*1637 FILLER_22_277
*1638 FILLER_22_289
*1639 FILLER_22_29
*1640 FILLER_22_297
*1641 FILLER_22_3
*1642 FILLER_22_35
*1643 FILLER_22_46
*1644 FILLER_22_59
*1645 FILLER_22_71
*1646 FILLER_22_82
*1647 FILLER_22_85
*1648 FILLER_22_95
*1649 FILLER_23_102
*1650 FILLER_23_110
*1651 FILLER_23_113
*1652 FILLER_23_12
*1653 FILLER_23_120
*1654 FILLER_23_127
*1655 FILLER_23_136
*1656 FILLER_23_143
*1657 FILLER_23_150
*1658 FILLER_23_16
*1659 FILLER_23_164
*1660 FILLER_23_169
*1661 FILLER_23_173
*1662 FILLER_23_183
*1663 FILLER_23_190
*1664 FILLER_23_196
*1665 FILLER_23_208
*1666 FILLER_23_222
*1667 FILLER_23_225
*1668 FILLER_23_235
*1669 FILLER_23_25
*1670 FILLER_23_257
*1671 FILLER_23_269
*1672 FILLER_23_277
*1673 FILLER_23_281
*1674 FILLER_23_293
*1675 FILLER_23_3
*1676 FILLER_23_37
*1677 FILLER_23_41
*1678 FILLER_23_49
*1679 FILLER_23_55
*1680 FILLER_23_57
*1681 FILLER_23_72
*1682 FILLER_23_82
*1683 FILLER_23_94
*1684 FILLER_24_110
*1685 FILLER_24_119
*1686 FILLER_24_130
*1687 FILLER_24_134
*1688 FILLER_24_138
*1689 FILLER_24_141
*1690 FILLER_24_159
*1691 FILLER_24_167
*1692 FILLER_24_17
*1693 FILLER_24_184
*1694 FILLER_24_188
*1695 FILLER_24_194
*1696 FILLER_24_197
*1697 FILLER_24_215
*1698 FILLER_24_223
*1699 FILLER_24_236
*1700 FILLER_24_250
*1701 FILLER_24_253
*1702 FILLER_24_257
*1703 FILLER_24_26
*1704 FILLER_24_266
*1705 FILLER_24_276
*1706 FILLER_24_288
*1707 FILLER_24_29
*1708 FILLER_24_296
*1709 FILLER_24_3
*1710 FILLER_24_37
*1711 FILLER_24_44
*1712 FILLER_24_55
*1713 FILLER_24_64
*1714 FILLER_24_72
*1715 FILLER_24_8
*1716 FILLER_24_80
*1717 FILLER_24_85
*1718 FILLER_24_97
*1719 FILLER_25_101
*1720 FILLER_25_108
*1721 FILLER_25_113
*1722 FILLER_25_123
*1723 FILLER_25_134
*1724 FILLER_25_158
*1725 FILLER_25_16
*1726 FILLER_25_166
*1727 FILLER_25_169
*1728 FILLER_25_176
*1729 FILLER_25_180
*1730 FILLER_25_185
*1731 FILLER_25_192
*1732 FILLER_25_196
*1733 FILLER_25_201
*1734 FILLER_25_209
*1735 FILLER_25_217
*1736 FILLER_25_222
*1737 FILLER_25_225
*1738 FILLER_25_243
*1739 FILLER_25_253
*1740 FILLER_25_257
*1741 FILLER_25_26
*1742 FILLER_25_274
*1743 FILLER_25_281
*1744 FILLER_25_293
*1745 FILLER_25_3
*1746 FILLER_25_34
*1747 FILLER_25_40
*1748 FILLER_25_46
*1749 FILLER_25_53
*1750 FILLER_25_57
*1751 FILLER_25_69
*1752 FILLER_25_83
*1753 FILLER_25_92
*1754 FILLER_26_101
*1755 FILLER_26_116
*1756 FILLER_26_127
*1757 FILLER_26_138
*1758 FILLER_26_141
*1759 FILLER_26_148
*1760 FILLER_26_155
*1761 FILLER_26_175
*1762 FILLER_26_18
*1763 FILLER_26_183
*1764 FILLER_26_191
*1765 FILLER_26_195
*1766 FILLER_26_197
*1767 FILLER_26_202
*1768 FILLER_26_222
*1769 FILLER_26_226
*1770 FILLER_26_233
*1771 FILLER_26_242
*1772 FILLER_26_250
*1773 FILLER_26_253
*1774 FILLER_26_26
*1775 FILLER_26_265
*1776 FILLER_26_277
*1777 FILLER_26_289
*1778 FILLER_26_29
*1779 FILLER_26_297
*1780 FILLER_26_3
*1781 FILLER_26_41
*1782 FILLER_26_51
*1783 FILLER_26_63
*1784 FILLER_26_78
*1785 FILLER_26_85
*1786 FILLER_26_90
*1787 FILLER_27_11
*1788 FILLER_27_110
*1789 FILLER_27_113
*1790 FILLER_27_123
*1791 FILLER_27_134
*1792 FILLER_27_158
*1793 FILLER_27_166
*1794 FILLER_27_169
*1795 FILLER_27_180
*1796 FILLER_27_184
*1797 FILLER_27_19
*1798 FILLER_27_201
*1799 FILLER_27_209
*1800 FILLER_27_220
*1801 FILLER_27_225
*1802 FILLER_27_232