*SPEF "ieee 1481-1999"
*DESIGN "diferential_rvb1"
*DATE "11:11:11 Fri 11 11, 1111"
*VENDOR "OpenRCX"
*PROGRAM "Parallel Extraction"
*VERSION "1.0"
*DESIGN_FLOW "NAME_SCOPE LOCAL" "PIN_CAP NONE"
*DIVIDER /
*DELIMITER :
*BUS_DELIMITER []
*T_UNIT 1 NS
*C_UNIT 1 PF
*R_UNIT 1 OHM
*L_UNIT 1 HENRY

*NAME_MAP
*1 io_in[0]
*2 io_in[1]
*3 io_in[2]
*4 io_in[3]
*5 io_in[4]
*6 io_in[5]
*7 io_in[6]
*8 io_in[7]
*9 io_out[0]
*10 io_out[1]
*11 io_out[2]
*12 io_out[3]
*13 io_out[4]
*14 io_out[5]
*15 io_out[6]
*16 io_out[7]
*19 _0000_
*20 _0001_
*21 _0002_
*22 _0003_
*23 _0004_
*24 _0005_
*25 _0006_
*26 _0007_
*27 _0008_
*28 _0009_
*29 _0010_
*30 _0011_
*31 _0012_
*32 _0013_
*33 _0014_
*34 _0015_
*35 _0016_
*36 _0017_
*37 _0018_
*38 _0019_
*39 _0020_
*40 _0021_
*41 _0022_
*42 _0023_
*43 _0024_
*44 _0025_
*45 _0026_
*46 _0027_
*47 _0028_
*48 _0029_
*49 _0030_
*50 _0031_
*51 _0032_
*52 _0033_
*53 _0034_
*54 _0035_
*55 _0036_
*56 _0037_
*57 _0038_
*58 _0039_
*59 _0040_
*60 _0041_
*61 _0042_
*62 _0043_
*63 _0044_
*64 _0045_
*65 _0046_
*66 _0047_
*67 _0048_
*68 _0049_
*69 _0050_
*70 _0051_
*71 _0052_
*72 _0053_
*73 _0054_
*74 _0055_
*75 _0056_
*76 _0057_
*77 _0058_
*78 _0059_
*79 _0060_
*80 _0061_
*81 _0062_
*82 _0063_
*83 _0064_
*84 _0065_
*85 _0066_
*86 _0067_
*87 _0068_
*88 _0069_
*89 _0070_
*90 _0071_
*91 _0072_
*92 _0073_
*93 _0074_
*94 _0075_
*95 _0076_
*96 _0077_
*97 _0078_
*98 _0079_
*99 _0080_
*100 _0081_
*101 _0082_
*102 _0083_
*103 _0084_
*104 _0085_
*105 _0086_
*106 _0087_
*107 _0088_
*108 _0089_
*109 _0090_
*110 _0091_
*111 _0092_
*112 _0093_
*113 _0094_
*114 _0095_
*115 _0096_
*116 _0097_
*117 _0098_
*118 _0099_
*119 _0100_
*120 _0101_
*121 _0102_
*122 _0103_
*123 _0104_
*124 _0105_
*125 _0106_
*126 _0107_
*127 _0108_
*128 _0109_
*129 _0110_
*130 _0111_
*131 _0112_
*132 _0113_
*133 _0114_
*134 _0115_
*135 _0116_
*136 _0117_
*137 _0118_
*138 _0119_
*139 _0120_
*140 _0121_
*141 _0122_
*142 _0123_
*143 _0124_
*144 _0125_
*145 _0126_
*146 _0127_
*147 _0128_
*148 _0129_
*149 _0130_
*150 _0131_
*151 _0132_
*152 _0133_
*153 _0134_
*154 _0135_
*155 _0136_
*156 _0137_
*157 _0138_
*158 _0139_
*159 _0140_
*160 _0141_
*161 _0142_
*162 _0143_
*163 _0144_
*164 _0145_
*165 _0146_
*166 _0147_
*167 _0148_
*168 _0149_
*169 _0150_
*170 _0151_
*171 _0152_
*172 _0153_
*173 _0154_
*174 _0155_
*175 _0156_
*176 _0157_
*177 _0158_
*178 _0159_
*179 _0160_
*180 _0161_
*181 _0162_
*182 _0163_
*183 _0164_
*184 _0165_
*185 _0166_
*186 _0167_
*187 _0168_
*188 _0169_
*189 _0170_
*190 _0171_
*191 _0172_
*192 _0173_
*193 _0174_
*194 _0175_
*195 _0176_
*196 _0177_
*197 _0178_
*198 _0179_
*199 _0180_
*200 _0181_
*201 _0182_
*202 _0183_
*203 _0184_
*204 _0185_
*205 _0186_
*206 _0187_
*207 _0188_
*208 _0189_
*209 _0190_
*210 _0191_
*211 _0192_
*212 _0193_
*213 _0194_
*214 _0195_
*215 _0196_
*216 _0197_
*217 _0198_
*218 _0199_
*219 _0200_
*220 _0201_
*221 _0202_
*222 _0203_
*223 _0204_
*224 _0205_
*225 _0206_
*226 _0207_
*227 _0208_
*228 _0209_
*229 _0210_
*230 _0211_
*231 _0212_
*232 _0213_
*233 _0214_
*234 _0215_
*235 _0216_
*236 _0217_
*237 _0218_
*238 _0219_
*239 _0220_
*240 _0221_
*241 _0222_
*242 _0223_
*243 _0224_
*244 _0225_
*245 _0226_
*246 _0227_
*247 _0228_
*248 _0229_
*249 _0230_
*250 _0231_
*251 _0232_
*252 _0233_
*253 _0234_
*254 _0235_
*255 _0236_
*256 _0237_
*257 _0238_
*258 _0239_
*259 _0240_
*260 _0241_
*261 _0242_
*262 _0243_
*263 _0244_
*264 _0245_
*265 _0246_
*266 _0247_
*267 _0248_
*268 _0249_
*269 _0250_
*270 _0251_
*271 _0252_
*272 _0253_
*273 _0254_
*274 _0255_
*275 _0256_
*276 _0257_
*277 _0258_
*278 _0259_
*279 _0260_
*280 _0261_
*281 _0262_
*282 _0263_
*283 _0264_
*284 _0265_
*285 _0266_
*286 _0267_
*287 _0268_
*288 _0269_
*289 _0270_
*290 _0271_
*291 _0272_
*292 _0273_
*293 _0274_
*294 _0275_
*295 _0276_
*296 _0277_
*297 _0278_
*298 _0279_
*299 _0280_
*300 _0281_
*301 _0282_
*302 _0283_
*303 _0284_
*304 _0285_
*305 _0286_
*306 _0287_
*307 _0288_
*308 _0289_
*309 _0290_
*310 _0291_
*311 _0292_
*312 _0293_
*313 _0294_
*314 _0295_
*315 _0296_
*316 _0297_
*317 _0298_
*318 _0299_
*319 _0300_
*320 _0301_
*321 _0302_
*322 _0303_
*323 _0304_
*324 _0305_
*325 _0306_
*326 _0307_
*327 _0308_
*328 _0309_
*329 _0310_
*330 _0311_
*331 _0312_
*332 _0313_
*333 _0314_
*334 _0315_
*335 _0316_
*336 _0317_
*337 _0318_
*338 _0319_
*339 _0320_
*340 _0321_
*341 _0322_
*342 _0323_
*343 _0324_
*344 _0325_
*345 _0326_
*346 _0327_
*347 _0328_
*348 _0329_
*349 _0330_
*350 _0331_
*351 _0332_
*352 _0333_
*353 _0334_
*354 _0335_
*355 _0336_
*356 _0337_
*357 _0338_
*358 _0339_
*359 _0340_
*360 _0341_
*361 _0342_
*362 _0343_
*363 _0344_
*364 _0345_
*365 _0346_
*366 _0347_
*367 _0348_
*368 _0349_
*369 _0350_
*370 _0351_
*371 _0352_
*372 _0353_
*373 _0354_
*374 _0355_
*375 _0356_
*376 _0357_
*377 _0358_
*378 _0359_
*379 _0360_
*380 _0361_
*381 _0362_
*382 _0363_
*383 _0364_
*384 _0365_
*385 _0366_
*386 _0367_
*387 _0368_
*388 _0369_
*389 _0370_
*390 _0371_
*391 _0372_
*392 _0373_
*393 _0374_
*394 _0375_
*395 _0376_
*396 _0377_
*397 _0378_
*398 _0379_
*399 _0380_
*400 _0381_
*401 _0382_
*402 _0383_
*403 _0384_
*404 _0385_
*405 _0386_
*406 _0387_
*407 _0388_
*408 _0389_
*409 _0390_
*410 _0391_
*411 _0392_
*412 _0393_
*413 _0394_
*414 _0395_
*415 _0396_
*416 _0397_
*417 _0398_
*418 _0399_
*419 _0400_
*420 _0401_
*421 _0402_
*422 _0403_
*423 _0404_
*424 _0405_
*425 _0406_
*426 _0407_
*427 _0408_
*428 _0409_
*429 _0410_
*430 _0411_
*431 _0412_
*432 _0413_
*433 _0414_
*434 _0415_
*435 _0416_
*436 _0417_
*437 _0418_
*438 _0419_
*439 _0420_
*440 _0421_
*441 _0422_
*442 _0423_
*443 _0424_
*444 _0425_
*445 _0426_
*446 _0427_
*447 _0428_
*448 _0429_
*449 _0430_
*450 _0431_
*451 _0432_
*452 _0433_
*453 _0434_
*454 _0435_
*455 _0436_
*456 _0437_
*457 _0438_
*458 _0439_
*459 _0440_
*460 _0441_
*461 _0442_
*462 _0443_
*463 _0444_
*464 _0445_
*465 _0446_
*466 _0447_
*467 _0448_
*468 _0449_
*469 _0450_
*470 _0451_
*471 _0452_
*472 _0453_
*473 _0454_
*474 _0455_
*475 _0456_
*476 _0457_
*477 _0458_
*478 _0459_
*479 _0460_
*480 _0461_
*481 _0462_
*482 _0463_
*483 _0464_
*484 _0465_
*485 _0466_
*486 _0467_
*487 _0468_
*488 _0469_
*489 _0470_
*490 _0471_
*491 _0472_
*492 _0473_
*493 c_inc_on
*494 clknet_0_io_in[0]
*495 clknet_3_0__leaf_io_in[0]
*496 clknet_3_1__leaf_io_in[0]
*497 clknet_3_2__leaf_io_in[0]
*498 clknet_3_3__leaf_io_in[0]
*499 clknet_3_4__leaf_io_in[0]
*500 clknet_3_5__leaf_io_in[0]
*501 clknet_3_6__leaf_io_in[0]
*502 clknet_3_7__leaf_io_in[0]
*503 mbox\._zz_c_state_cnt\[0\]
*504 mbox\._zz_c_state_cnt\[1\]
*505 mbox\._zz_c_state_cnt\[2\]
*506 mbox\._zz_c_state_cnt\[3\]
*507 mbox\._zz_c_state_cnt\[4\]
*508 mbox\._zz_c_state_cnt\[5\]
*509 mbox\._zz_c_state_cnt\[6\]
*510 mbox\._zz_c_state_cnt\[7\]
*511 mbox\.c_fsm_blockAddress\[0\]
*512 mbox\.c_fsm_blockAddress\[1\]
*513 mbox\.c_fsm_blockAddress\[2\]
*514 mbox\.c_fsm_blockAddress\[3\]
*515 mbox\.c_fsm_inbox_storage\[0\]
*516 mbox\.c_fsm_inbox_storage\[12\]
*517 mbox\.c_fsm_inbox_storage\[13\]
*518 mbox\.c_fsm_inbox_storage\[14\]
*519 mbox\.c_fsm_inbox_storage\[15\]
*520 mbox\.c_fsm_inbox_storage\[16\]
*521 mbox\.c_fsm_inbox_storage\[17\]
*522 mbox\.c_fsm_inbox_storage\[18\]
*523 mbox\.c_fsm_inbox_storage\[19\]
*524 mbox\.c_fsm_inbox_storage\[1\]
*525 mbox\.c_fsm_inbox_storage\[20\]
*526 mbox\.c_fsm_inbox_storage\[21\]
*527 mbox\.c_fsm_inbox_storage\[22\]
*528 mbox\.c_fsm_inbox_storage\[23\]
*529 mbox\.c_fsm_inbox_storage\[24\]
*530 mbox\.c_fsm_inbox_storage\[25\]
*531 mbox\.c_fsm_inbox_storage\[26\]
*532 mbox\.c_fsm_inbox_storage\[27\]
*533 mbox\.c_fsm_inbox_storage\[2\]
*534 mbox\.c_fsm_inbox_storage\[3\]
*535 mbox\.c_fsm_outCyclesLeft\[0\]
*536 mbox\.c_fsm_outCyclesLeft\[1\]
*537 mbox\.c_fsm_outCyclesLeft\[2\]
*538 mbox\.c_fsm_outCyclesLeft\[3\]
*539 mbox\.c_fsm_outbox\[0\]
*540 mbox\.c_fsm_outbox\[10\]
*541 mbox\.c_fsm_outbox\[11\]
*542 mbox\.c_fsm_outbox\[12\]
*543 mbox\.c_fsm_outbox\[13\]
*544 mbox\.c_fsm_outbox\[14\]
*545 mbox\.c_fsm_outbox\[15\]
*546 mbox\.c_fsm_outbox\[16\]
*547 mbox\.c_fsm_outbox\[17\]
*548 mbox\.c_fsm_outbox\[18\]
*549 mbox\.c_fsm_outbox\[19\]
*550 mbox\.c_fsm_outbox\[1\]
*551 mbox\.c_fsm_outbox\[20\]
*552 mbox\.c_fsm_outbox\[21\]
*553 mbox\.c_fsm_outbox\[22\]
*554 mbox\.c_fsm_outbox\[23\]
*555 mbox\.c_fsm_outbox\[24\]
*556 mbox\.c_fsm_outbox\[25\]
*557 mbox\.c_fsm_outbox\[26\]
*558 mbox\.c_fsm_outbox\[27\]
*559 mbox\.c_fsm_outbox\[2\]
*560 mbox\.c_fsm_outbox\[3\]
*561 mbox\.c_fsm_outbox\[4\]
*562 mbox\.c_fsm_outbox\[5\]
*563 mbox\.c_fsm_outbox\[6\]
*564 mbox\.c_fsm_outbox\[7\]
*565 mbox\.c_fsm_outbox\[8\]
*566 mbox\.c_fsm_outbox\[9\]
*567 mbox\.c_fsm_stateReg\[0\]
*568 mbox\.c_fsm_stateReg\[1\]
*569 mbox\.c_state_cnt\[0\]
*570 mbox\.c_state_cnt\[1\]
*571 mbox\.c_state_cnt\[2\]
*572 mbox\.c_state_cnt\[3\]
*573 mbox\.c_state_cnt\[4\]
*574 mbox\.c_state_cnt\[5\]
*575 mbox\.c_state_cnt\[6\]
*576 mbox\.c_state_cnt\[7\]
*577 mbox\.ffSerDataDone\.q
*578 mbox\.ffSerDataDone\.q_out
*579 mbox\.ffSerDataIn\.q
*580 mbox\.ffSerDataIn\.q_out
*581 mbox\.ffSerDataPresent\.q
*582 mbox\.ffSerDataPresent\.q_out
*583 mbox\.io_outbox_payload\[10\]
*584 mbox\.io_outbox_payload\[11\]
*585 mbox\.io_outbox_payload\[12\]
*586 mbox\.io_outbox_payload\[13\]
*587 mbox\.io_outbox_payload\[14\]
*588 mbox\.io_outbox_payload\[15\]
*589 mbox\.io_outbox_payload\[16\]
*590 mbox\.io_outbox_payload\[17\]
*591 mbox\.io_outbox_payload\[18\]
*592 mbox\.io_outbox_payload\[19\]
*593 mbox\.io_outbox_payload\[20\]
*594 mbox\.io_outbox_payload\[21\]
*595 mbox\.io_outbox_payload\[22\]
*596 mbox\.io_outbox_payload\[23\]
*597 mbox\.io_outbox_payload\[24\]
*598 mbox\.io_outbox_payload\[25\]
*599 mbox\.io_outbox_payload\[26\]
*600 mbox\.io_outbox_payload\[27\]
*601 mbox\.io_outbox_payload\[4\]
*602 mbox\.io_outbox_payload\[5\]
*603 mbox\.io_outbox_payload\[6\]
*604 mbox\.io_outbox_payload\[7\]
*605 mbox\.io_outbox_payload\[8\]
*606 mbox\.io_outbox_payload\[9\]
*607 mbox\.resetArea_cnt\[0\]
*608 mbox\.resetArea_cnt\[1\]
*609 mbox\.resetArea_cnt\[2\]
*610 net1
*611 net2
*612 net3
*613 net4
*614 net5
*615 net6
*616 net7
*617 ANTENNA_1
*618 ANTENNA_10
*619 ANTENNA_11
*620 ANTENNA_12
*621 ANTENNA_13
*622 ANTENNA_14
*623 ANTENNA_15
*624 ANTENNA_16
*625 ANTENNA_17
*626 ANTENNA_18
*627 ANTENNA_19
*628 ANTENNA_2
*629 ANTENNA_20
*630 ANTENNA_21
*631 ANTENNA_22
*632 ANTENNA_23
*633 ANTENNA_24
*634 ANTENNA_3
*635 ANTENNA_4
*636 ANTENNA_5
*637 ANTENNA_6
*638 ANTENNA_7
*639 ANTENNA_8
*640 ANTENNA_9
*641 FILLER_0_103
*642 FILLER_0_111
*643 FILLER_0_113
*644 FILLER_0_131
*645 FILLER_0_139
*646 FILLER_0_141
*647 FILLER_0_153
*648 FILLER_0_165
*649 FILLER_0_169
*650 FILLER_0_181
*651 FILLER_0_193
*652 FILLER_0_197
*653 FILLER_0_209
*654 FILLER_0_22
*655 FILLER_0_221
*656 FILLER_0_225
*657 FILLER_0_237
*658 FILLER_0_249
*659 FILLER_0_253
*660 FILLER_0_26
*661 FILLER_0_265
*662 FILLER_0_277
*663 FILLER_0_281
*664 FILLER_0_29
*665 FILLER_0_293
*666 FILLER_0_3
*667 FILLER_0_48
*668 FILLER_0_57
*669 FILLER_0_61
*670 FILLER_0_64
*671 FILLER_0_82
*672 FILLER_0_85
*673 FILLER_10_103
*674 FILLER_10_116
*675 FILLER_10_128
*676 FILLER_10_141
*677 FILLER_10_153
*678 FILLER_10_165
*679 FILLER_10_177
*680 FILLER_10_189
*681 FILLER_10_195
*682 FILLER_10_197
*683 FILLER_10_209
*684 FILLER_10_221
*685 FILLER_10_233
*686 FILLER_10_245
*687 FILLER_10_251
*688 FILLER_10_253
*689 FILLER_10_26
*690 FILLER_10_265
*691 FILLER_10_277
*692 FILLER_10_289
*693 FILLER_10_29
*694 FILLER_10_297
*695 FILLER_10_3
*696 FILLER_10_37
*697 FILLER_10_54
*698 FILLER_10_75
*699 FILLER_10_83
*700 FILLER_10_85
*701 FILLER_11_102
*702 FILLER_11_109
*703 FILLER_11_113
*704 FILLER_11_123
*705 FILLER_11_135
*706 FILLER_11_147
*707 FILLER_11_15
*708 FILLER_11_159
*709 FILLER_11_167
*710 FILLER_11_169
*711 FILLER_11_181
*712 FILLER_11_193
*713 FILLER_11_205
*714 FILLER_11_217
*715 FILLER_11_223
*716 FILLER_11_225
*717 FILLER_11_237
*718 FILLER_11_249
*719 FILLER_11_261
*720 FILLER_11_273
*721 FILLER_11_279
*722 FILLER_11_281
*723 FILLER_11_293
*724 FILLER_11_3
*725 FILLER_11_36
*726 FILLER_11_48
*727 FILLER_11_57
*728 FILLER_11_65
*729 FILLER_11_82
*730 FILLER_11_9
*731 FILLER_12_103
*732 FILLER_12_115
*733 FILLER_12_124
*734 FILLER_12_136
*735 FILLER_12_141
*736 FILLER_12_151
*737 FILLER_12_163
*738 FILLER_12_175
*739 FILLER_12_187
*740 FILLER_12_195
*741 FILLER_12_197
*742 FILLER_12_209
*743 FILLER_12_22
*744 FILLER_12_221
*745 FILLER_12_233
*746 FILLER_12_245
*747 FILLER_12_251
*748 FILLER_12_253
*749 FILLER_12_265
*750 FILLER_12_277
*751 FILLER_12_289
*752 FILLER_12_29
*753 FILLER_12_297
*754 FILLER_12_3
*755 FILLER_12_41
*756 FILLER_12_65
*757 FILLER_12_73
*758 FILLER_12_82
*759 FILLER_12_85
*760 FILLER_13_108
*761 FILLER_13_113
*762 FILLER_13_124
*763 FILLER_13_132
*764 FILLER_13_144
*765 FILLER_13_15
*766 FILLER_13_156
*767 FILLER_13_169
*768 FILLER_13_181
*769 FILLER_13_193
*770 FILLER_13_205
*771 FILLER_13_217
*772 FILLER_13_223
*773 FILLER_13_225
*774 FILLER_13_237
*775 FILLER_13_249
*776 FILLER_13_261
*777 FILLER_13_273
*778 FILLER_13_279
*779 FILLER_13_281
*780 FILLER_13_293
*781 FILLER_13_3
*782 FILLER_13_38
*783 FILLER_13_50
*784 FILLER_13_57
*785 FILLER_13_76
*786 FILLER_13_96
*787 FILLER_14_103
*788 FILLER_14_114
*789 FILLER_14_123
*790 FILLER_14_127
*791 FILLER_14_133
*792 FILLER_14_139
*793 FILLER_14_141
*794 FILLER_14_153
*795 FILLER_14_165
*796 FILLER_14_177
*797 FILLER_14_189
*798 FILLER_14_195
*799 FILLER_14_197
*800 FILLER_14_209
*801 FILLER_14_22
*802 FILLER_14_221
*803 FILLER_14_233
*804 FILLER_14_245
*805 FILLER_14_251
*806 FILLER_14_253
*807 FILLER_14_26
*808 FILLER_14_265
*809 FILLER_14_277
*810 FILLER_14_289
*811 FILLER_14_29
*812 FILLER_14_297
*813 FILLER_14_3
*814 FILLER_14_41
*815 FILLER_14_61
*816 FILLER_14_81
*817 FILLER_14_85
*818 FILLER_15_106
*819 FILLER_15_11
*820 FILLER_15_113
*821 FILLER_15_123
*822 FILLER_15_131
*823 FILLER_15_14
*824 FILLER_15_143
*825 FILLER_15_153
*826 FILLER_15_165
*827 FILLER_15_169
*828 FILLER_15_181
*829 FILLER_15_193
*830 FILLER_15_205
*831 FILLER_15_217
*832 FILLER_15_223
*833 FILLER_15_225
*834 FILLER_15_237
*835 FILLER_15_249
*836 FILLER_15_261
*837 FILLER_15_273
*838 FILLER_15_279
*839 FILLER_15_281
*840 FILLER_15_293
*841 FILLER_15_3
*842 FILLER_15_33
*843 FILLER_15_54
*844 FILLER_15_57
*845 FILLER_15_62
*846 FILLER_15_83
*847 FILLER_15_87
*848 FILLER_15_94
*849 FILLER_16_103
*850 FILLER_16_115
*851 FILLER_16_123
*852 FILLER_16_132
*853 FILLER_16_141
*854 FILLER_16_149
*855 FILLER_16_158
*856 FILLER_16_169
*857 FILLER_16_181
*858 FILLER_16_193
*859 FILLER_16_197
*860 FILLER_16_209
*861 FILLER_16_21
*862 FILLER_16_221
*863 FILLER_16_233
*864 FILLER_16_245
*865 FILLER_16_251
*866 FILLER_16_253
*867 FILLER_16_265
*868 FILLER_16_27
*869 FILLER_16_277
*870 FILLER_16_289
*871 FILLER_16_29
*872 FILLER_16_297
*873 FILLER_16_3
*874 FILLER_16_41
*875 FILLER_16_65
*876 FILLER_16_71
*877 FILLER_16_75
*878 FILLER_16_82
*879 FILLER_16_85
*880 FILLER_17_110
*881 FILLER_17_113
*882 FILLER_17_125
*883 FILLER_17_134
*884 FILLER_17_141
*885 FILLER_17_15
*886 FILLER_17_153
*887 FILLER_17_165
*888 FILLER_17_169
*889 FILLER_17_181
*890 FILLER_17_193
*891 FILLER_17_205
*892 FILLER_17_217
*893 FILLER_17_223
*894 FILLER_17_225
*895 FILLER_17_237
*896 FILLER_17_249
*897 FILLER_17_261
*898 FILLER_17_273
*899 FILLER_17_279
*900 FILLER_17_281
*901 FILLER_17_293
*902 FILLER_17_3
*903 FILLER_17_36
*904 FILLER_17_48
*905 FILLER_17_57
*906 FILLER_17_79
*907 FILLER_17_99
*908 FILLER_18_103
*909 FILLER_18_111
*910 FILLER_18_123
*911 FILLER_18_131
*912 FILLER_18_138
*913 FILLER_18_141
*914 FILLER_18_162
*915 FILLER_18_174
*916 FILLER_18_186
*917 FILLER_18_194
*918 FILLER_18_197
*919 FILLER_18_209
*920 FILLER_18_221
*921 FILLER_18_233
*922 FILLER_18_245
*923 FILLER_18_251
*924 FILLER_18_253
*925 FILLER_18_26
*926 FILLER_18_265
*927 FILLER_18_277
*928 FILLER_18_289
*929 FILLER_18_29
*930 FILLER_18_297
*931 FILLER_18_3
*932 FILLER_18_37
*933 FILLER_18_54
*934 FILLER_18_62
*935 FILLER_18_81
*936 FILLER_18_85
*937 FILLER_18_9
*938 FILLER_19_100
*939 FILLER_19_104
*940 FILLER_19_110
*941 FILLER_19_113
*942 FILLER_19_125
*943 FILLER_19_137
*944 FILLER_19_141
*945 FILLER_19_147
*946 FILLER_19_15
*947 FILLER_19_156
*948 FILLER_19_169
*949 FILLER_19_181
*950 FILLER_19_19
*951 FILLER_19_193
*952 FILLER_19_205
*953 FILLER_19_217
*954 FILLER_19_223
*955 FILLER_19_225
*956 FILLER_19_237
*957 FILLER_19_249
*958 FILLER_19_261
*959 FILLER_19_273
*960 FILLER_19_279
*961 FILLER_19_281
*962 FILLER_19_293
*963 FILLER_19_3
*964 FILLER_19_37
*965 FILLER_19_49
*966 FILLER_19_55
*967 FILLER_19_57
*968 FILLER_19_63
*969 FILLER_19_80
*970 FILLER_1_102
*971 FILLER_1_110
*972 FILLER_1_113
*973 FILLER_1_122
*974 FILLER_1_131
*975 FILLER_1_143
*976 FILLER_1_151
*977 FILLER_1_162
*978 FILLER_1_169
*979 FILLER_1_181
*980 FILLER_1_193
*981 FILLER_1_205
*982 FILLER_1_217
*983 FILLER_1_22
*984 FILLER_1_223
*985 FILLER_1_225
*986 FILLER_1_237
*987 FILLER_1_249
*988 FILLER_1_26
*989 FILLER_1_261
*990 FILLER_1_273
*991 FILLER_1_279
*992 FILLER_1_281
*993 FILLER_1_293
*994 FILLER_1_3
*995 FILLER_1_51
*996 FILLER_1_55
*997 FILLER_1_57
*998 FILLER_1_61
*999 FILLER_1_64
*1000 FILLER_1_82
*1001 FILLER_20_110
*1002 FILLER_20_122
*1003 FILLER_20_130
*1004 FILLER_20_138
*1005 FILLER_20_141
*1006 FILLER_20_152
*1007 FILLER_20_160
*1008 FILLER_20_165
*1009 FILLER_20_177
*1010 FILLER_20_185
*1011 FILLER_20_193
*1012 FILLER_20_197
*1013 FILLER_20_209
*1014 FILLER_20_221
*1015 FILLER_20_233
*1016 FILLER_20_245
*1017 FILLER_20_251
*1018 FILLER_20_253
*1019 FILLER_20_26
*1020 FILLER_20_265
*1021 FILLER_20_277
*1022 FILLER_20_289
*1023 FILLER_20_29
*1024 FILLER_20_297
*1025 FILLER_20_3
*1026 FILLER_20_52
*1027 FILLER_20_64
*1028 FILLER_20_81
*1029 FILLER_20_85
*1030 FILLER_20_91
*1031 FILLER_21_106
*1032 FILLER_21_113
*1033 FILLER_21_118
*1034 FILLER_21_131
*1035 FILLER_21_143
*1036 FILLER_21_154
*1037 FILLER_21_166
*1038 FILLER_21_169
*1039 FILLER_21_189
*1040 FILLER_21_201
*1041 FILLER_21_209
*1042 FILLER_21_221
*1043 FILLER_21_225
*1044 FILLER_21_237
*1045 FILLER_21_249
*1046 FILLER_21_25
*1047 FILLER_21_261
*1048 FILLER_21_273
*1049 FILLER_21_279
*1050 FILLER_21_281
*1051 FILLER_21_29
*1052 FILLER_21_293
*1053 FILLER_21_3
*1054 FILLER_21_48
*1055 FILLER_21_57
*1056 FILLER_21_63
*1057 FILLER_21_80
*1058 FILLER_21_94
*1059 FILLER_22_101
*1060 FILLER_22_106
*1061 FILLER_22_118
*1062 FILLER_22_129
*1063 FILLER_22_138
*1064 FILLER_22_141
*1065 FILLER_22_151
*1066 FILLER_22_160
*1067 FILLER_22_168
*1068 FILLER_22_180
*1069 FILLER_22_190
*1070 FILLER_22_197
*1071 FILLER_22_209
*1072 FILLER_22_22
*1073 FILLER_22_221
*1074 FILLER_22_233
*1075 FILLER_22_245
*1076 FILLER_22_251
*1077 FILLER_22_253
*1078 FILLER_22_265
*1079 FILLER_22_277
*1080 FILLER_22_289
*1081 FILLER_22_29
*1082 FILLER_22_297
*1083 FILLER_22_3
*1084 FILLER_22_48
*1085 FILLER_22_60
*1086 FILLER_22_82
*1087 FILLER_22_85
*1088 FILLER_22_95
*1089 FILLER_23_100
*1090 FILLER_23_110
*1091 FILLER_23_113
*1092 FILLER_23_123
*1093 FILLER_23_132
*1094 FILLER_23_140
*1095 FILLER_23_144
*1096 FILLER_23_150
*1097 FILLER_23_158
*1098 FILLER_23_166
*1099 FILLER_23_169
*1100 FILLER_23_181
*1101 FILLER_23_193
*1102 FILLER_23_205
*1103 FILLER_23_217
*1104 FILLER_23_22
*1105 FILLER_23_223
*1106 FILLER_23_225
*1107 FILLER_23_237
*1108 FILLER_23_249
*1109 FILLER_23_261
*1110 FILLER_23_273
*1111 FILLER_23_279
*1112 FILLER_23_281
*1113 FILLER_23_29
*1114 FILLER_23_293
*1115 FILLER_23_3
*1116 FILLER_23_35
*1117 FILLER_23_53
*1118 FILLER_23_57
*1119 FILLER_23_75
*1120 FILLER_23_84
*1121 FILLER_23_96
*1122 FILLER_24_103
*1123 FILLER_24_113
*1124 FILLER_24_121
*1125 FILLER_24_127
*1126 FILLER_24_136
*1127 FILLER_24_141
*1128 FILLER_24_155
*1129 FILLER_24_163
*1130 FILLER_24_175
*1131 FILLER_24_181
*1132 FILLER_24_190
*1133 FILLER_24_197
*1134 FILLER_24_209
*1135 FILLER_24_221
*1136 FILLER_24_233
*1137 FILLER_24_245
*1138 FILLER_24_251
*1139 FILLER_24_253
*1140 FILLER_24_26
*1141 FILLER_24_265
*1142 FILLER_24_277
*1143 FILLER_24_289
*1144 FILLER_24_29
*1145 FILLER_24_297
*1146 FILLER_24_3
*1147 FILLER_24_50
*1148 FILLER_24_62
*1149 FILLER_24_81
*1150 FILLER_24_85
*1151 FILLER_24_9
*1152 FILLER_25_108
*1153 FILLER_25_113
*1154 FILLER_25_121
*1155 FILLER_25_138
*1156 FILLER_25_151
*1157 FILLER_25_166
*1158 FILLER_25_169
*1159 FILLER_25_185
*1160 FILLER_25_201
*1161 FILLER_25_213
*1162 FILLER_25_221
*1163 FILLER_25_225
*1164 FILLER_25_237
*1165 FILLER_25_249
*1166 FILLER_25_261
*1167 FILLER_25_27
*1168 FILLER_25_273
*1169 FILLER_25_279
*1170 FILLER_25_281
*1171 FILLER_25_293
*1172 FILLER_25_3
*1173 FILLER_25_48
*1174 FILLER_25_57
*1175 FILLER_25_80
*1176 FILLER_25_88
*1177 FILLER_25_9
*1178 FILLER_25_98
*1179 FILLER_26_104
*1180 FILLER_26_108
*1181 FILLER_26_114
*1182 FILLER_26_123
*1183 FILLER_26_130
*1184 FILLER_26_138
*1185 FILLER_26_141
*1186 FILLER_26_150
*1187 FILLER_26_162
*1188 FILLER_26_170
*1189 FILLER_26_176
*1190 FILLER_26_185
*1191 FILLER_26_193
*1192 FILLER_26_197
*1193 FILLER_26_204
*1194 FILLER_26_21
*1195 FILLER_26_212
*1196 FILLER_26_220
*1197 FILLER_26_232
*1198 FILLER_26_244
*1199 FILLER_26_253
*1200 FILLER_26_265
*1201 FILLER_26_27
*1202 FILLER_26_277
*1203 FILLER_26_289
*1204 FILLER_26_29
*1205 FILLER_26_297
*1206 FILLER_26_3
*1207 FILLER_26_34
*1208 FILLER_26_42
*1209 FILLER_26_65
*1210 FILLER_26_73
*1211 FILLER_26_82
*1212 FILLER_26_85
*1213 FILLER_26_94
*1214 FILLER_27_100
*1215 FILLER_27_110
*1216 FILLER_27_113
*1217 FILLER_27_122
*1218 FILLER_27_131
*1219 FILLER_27_139
*1220 FILLER_27_147
*1221 FILLER_27_15
*1222 FILLER_27_155
*1223 FILLER_27_165
*1224 FILLER_27_169
*1225 FILLER_27_177
*1226 FILLER_27_186
*1227 FILLER_27_194
*1228 FILLER_27_201
*1229 FILLER_27_209
*1230 FILLER_27_217
*1231 FILLER_27_223
*1232 FILLER_27_225
*1233 FILLER_27_237
*1234 FILLER_27_249
*1235 FILLER_27_261
*1236 FILLER_27_273
*1237 FILLER_27_279
*1238 FILLER_27_281
*1239 FILLER_27_293
*1240 FILLER_27_3
*1241 FILLER_27_36
*1242 FILLER_27_48
*1243 FILLER_27_57
*1244 FILLER_27_75
*1245 FILLER_27_81
*1246 FILLER_27_91
*1247 FILLER_28_110
*1248 FILLER_28_123
*1249 FILLER_28_132
*1250 FILLER_28_141
*1251 FILLER_28_150
*1252 FILLER_28_160
*1253 FILLER_28_167
*1254 FILLER_28_175
*1255 FILLER_28_183
*1256 FILLER_28_191
*1257 FILLER_28_195
*1258 FILLER_28_197
*1259 FILLER_28_208
*1260 FILLER_28_220
*1261 FILLER_28_232
*1262 FILLER_28_244
*1263 FILLER_28_253
*1264 FILLER_28_26
*1265 FILLER_28_265
*1266 FILLER_28_277
*1267 FILLER_28_289
*1268 FILLER_28_29
*1269 FILLER_28_297
*1270 FILLER_28_3
*1271 FILLER_28_41
*1272 FILLER_28_45
*1273 FILLER_28_63
*1274 FILLER_28_71
*1275 FILLER_28_75
*1276 FILLER_28_82
*1277 FILLER_28_85
*1278 FILLER_28_91
*1279 FILLER_28_97
*1280 FILLER_29_110
*1281 FILLER_29_113
*1282 FILLER_29_124
*1283 FILLER_29_132
*1284 FILLER_29_140
*1285 FILLER_29_146
*1286 FILLER_29_154
*1287 FILLER_29_158
*1288 FILLER_29_16
*1289 FILLER_29_166
*1290 FILLER_29_169
*1291 FILLER_29_181
*1292 FILLER_29_189
*1293 FILLER_29_196
*1294 FILLER_29_202
*1295 FILLER_29_211
*1296 FILLER_29_218
*1297 FILLER_29_225
*1298 FILLER_29_232
*1299 FILLER_29_244
*1300 FILLER_29_256
*1301 FILLER_29_268
*1302 FILLER_29_281
*1303 FILLER_29_293
*1304 FILLER_29_3
*1305 FILLER_29_34
*1306 FILLER_29_54
*1307 FILLER_29_57
*1308 FILLER_29_78
*1309 FILLER_29_8
*1310 FILLER_29_86
*1311 FILLER_29_91
*1312 FILLER_29_99
*1313 FILLER_2_103
*1314 FILLER_2_112
*1315 FILLER_2_116
*1316 FILLER_2_122
*1317 FILLER_2_134
*1318 FILLER_2_141
*1319 FILLER_2_153
*1320 FILLER_2_165
*1321 FILLER_2_177
*1322 FILLER_2_189
*1323 FILLER_2_195
*1324 FILLER_2_197
*1325 FILLER_2_209
*1326 FILLER_2_221
*1327 FILLER_2_233
*1328 FILLER_2_245
*1329 FILLER_2_251
*1330 FILLER_2_253
*1331 FILLER_2_26
*1332 FILLER_2_265
*1333 FILLER_2_277
*1334 FILLER_2_289
*1335 FILLER_2_29
*1336 FILLER_2_297
*1337 FILLER_2_3
*1338 FILLER_2_41
*1339 FILLER_2_65
*1340 FILLER_2_77
*1341 FILLER_2_83
*1342 FILLER_2_85
*1343 FILLER_30_103
*1344 FILLER_30_112
*1345 FILLER_30_120
*1346 FILLER_30_127
*1347 FILLER_30_138
*1348 FILLER_30_141
*1349 FILLER_30_150
*1350 FILLER_30_158
*1351 FILLER_30_166
*1352 FILLER_30_179
*1353 FILLER_30_191
*1354 FILLER_30_195
*1355 FILLER_30_197
*1356 FILLER_30_207
*1357 FILLER_30_219
*1358 FILLER_30_228
*1359 FILLER_30_240
*1360 FILLER_30_253
*1361 FILLER_30_26
*1362 FILLER_30_265
*1363 FILLER_30_277
*1364 FILLER_30_289
*1365 FILLER_30_29
*1366 FILLER_30_297
*1367 FILLER_30_3
*1368 FILLER_30_41
*1369 FILLER_30_45
*1370 FILLER_30_62
*1371 FILLER_30_8
*1372 FILLER_30_82
*1373 FILLER_30_85
*1374 FILLER_31_110
*1375 FILLER_31_113
*1376 FILLER_31_123
*1377 FILLER_31_131
*1378 FILLER_31_14
*1379 FILLER_31_146
*1380 FILLER_31_150
*1381 FILLER_31_159
*1382 FILLER_31_166
*1383 FILLER_31_169
*1384 FILLER_31_175
*1385 FILLER_31_183
*1386 FILLER_31_196
*1387 FILLER_31_202
*1388 FILLER_31_211
*1389 FILLER_31_220
*1390 FILLER_31_225
*1391 FILLER_31_235
*1392 FILLER_31_247
*1393 FILLER_31_259
*1394 FILLER_31_271
*1395 FILLER_31_279
*1396 FILLER_31_281
*1397 FILLER_31_293
*1398 FILLER_31_3
*1399 FILLER_31_34
*1400 FILLER_31_54
*1401 FILLER_31_57
*1402 FILLER_31_65
*1403 FILLER_31_83
*1404 FILLER_31_98
*1405 FILLER_32_105
*1406 FILLER_32_113
*1407 FILLER_32_124
*1408 FILLER_32_138
*1409 FILLER_32_141
*1410 FILLER_32_151
*1411 FILLER_32_160
*1412 FILLER_32_164
*1413 FILLER_32_173
*1414 FILLER_32_184
*1415 FILLER_32_194
*1416 FILLER_32_197
*1417 FILLER_32_203
*1418 FILLER_32_211
*1419 FILLER_32_222
*1420 FILLER_32_234
*1421 FILLER_32_246
*1422 FILLER_32_253
*1423 FILLER_32_26
*1424 FILLER_32_265
*1425 FILLER_32_277
*1426 FILLER_32_289
*1427 FILLER_32_29
*1428 FILLER_32_297
*1429 FILLER_32_3
*1430 FILLER_32_41
*1431 FILLER_32_45
*1432 FILLER_32_62
*1433 FILLER_32_82
*1434 FILLER_32_85
*1435 FILLER_32_9
*1436 FILLER_33_102
*1437 FILLER_33_108
*1438 FILLER_33_113
*1439 FILLER_33_118
*1440 FILLER_33_122
*1441 FILLER_33_131
*1442 FILLER_33_138
*1443 FILLER_33_146
*1444 FILLER_33_154
*1445 FILLER_33_158
*1446 FILLER_33_166
*1447 FILLER_33_169
*1448 FILLER_33_175
*1449 FILLER_33_181
*1450 FILLER_33_189
*1451 FILLER_33_200
*1452 FILLER_33_211
*1453 FILLER_33_223
*1454 FILLER_33_225
*1455 FILLER_33_23
*1456 FILLER_33_237
*1457 FILLER_33_249
*1458 FILLER_33_261
*1459 FILLER_33_273
*1460 FILLER_33_279
*1461 FILLER_33_281
*1462 FILLER_33_293
*1463 FILLER_33_3
*1464 FILLER_33_31
*1465 FILLER_33_48
*1466 FILLER_33_57
*1467 FILLER_33_69
*1468 FILLER_33_77
*1469 FILLER_33_81
*1470 FILLER_33_96
*1471 FILLER_34_106
*1472 FILLER_34_120
*1473 FILLER_34_132
*1474 FILLER_34_141
*1475 FILLER_34_147
*1476 FILLER_34_156
*1477 FILLER_34_160
*1478 FILLER_34_165
*1479 FILLER_34_176
*1480 FILLER_34_184
*1481 FILLER_34_192
*1482 FILLER_34_197
*1483 FILLER_34_202
*1484 FILLER_34_21
*1485 FILLER_34_212
*1486 FILLER_34_224
*1487 FILLER_34_235
*1488 FILLER_34_244
*1489 FILLER_34_253
*1490 FILLER_34_265
*1491 FILLER_34_27
*1492 FILLER_34_277
*1493 FILLER_34_289
*1494 FILLER_34_29
*1495 FILLER_34_297
*1496 FILLER_34_3
*1497 FILLER_34_34
*1498 FILLER_34_43
*1499 FILLER_34_63
*1500 FILLER_34_75
*1501 FILLER_34_82
*1502 FILLER_34_85
*1503 FILLER_34_95
*1504 FILLER_35_102
*1505 FILLER_35_108
*1506 FILLER_35_113
*1507 FILLER_35_123
*1508 FILLER_35_131
*1509 FILLER_35_140
*1510 FILLER_35_144
*1511 FILLER_35_151
*1512 FILLER_35_164
*1513 FILLER_35_169
*1514 FILLER_35_175
*1515 FILLER_35_183
*1516 FILLER_35_194
*1517 FILLER_35_198
*1518 FILLER_35_205
*1519 FILLER_35_21
*1520 FILLER_35_214
*1521 FILLER_35_222
*1522 FILLER_35_225
*1523 FILLER_35_234
*1524 FILLER_35_247
*1525 FILLER_35_259
*1526 FILLER_35_271
*1527 FILLER_35_279
*1528 FILLER_35_281
*1529 FILLER_35_293
*1530 FILLER_35_3
*1531 FILLER_35_33
*1532 FILLER_35_41
*1533 FILLER_35_52
*1534 FILLER_35_57
*1535 FILLER_35_66
*1536 FILLER_35_77
*1537 FILLER_35_81
*1538 FILLER_35_89
*1539 FILLER_35_98
*1540 FILLER_36_102
*1541 FILLER_36_110
*1542 FILLER_36_123
*1543 FILLER_36_131
*1544 FILLER_36_138
*1545 FILLER_36_141
*1546 FILLER_36_147
*1547 FILLER_36_153
*1548 FILLER_36_157
*1549 FILLER_36_166
*1550 FILLER_36_174
*1551 FILLER_36_181
*1552 FILLER_36_189
*1553 FILLER_36_195
*1554 FILLER_36_197
*1555 FILLER_36_20
*1556 FILLER_36_208
*1557 FILLER_36_223
*1558 FILLER_36_231
*1559 FILLER_36_239
*1560 FILLER_36_251
*1561 FILLER_36_253
*1562 FILLER_36_265
*1563 FILLER_36_277
*1564 FILLER_36_289
*1565 FILLER_36_29
*1566 FILLER_36_297
*1567 FILLER_36_3
*1568 FILLER_36_39
*1569 FILLER_36_62
*1570 FILLER_36_74
*1571 FILLER_36_78
*1572 FILLER_36_82
*1573 FILLER_36_85
*1574 FILLER_36_94
*1575 FILLER_37_102
*1576 FILLER_37_109
*1577 FILLER_37_113
*1578 FILLER_37_120
*1579 FILLER_37_124
*1580 FILLER_37_129
*1581 FILLER_37_138
*1582 FILLER_37_145
*1583 FILLER_37_15
*1584 FILLER_37_155
*1585 FILLER_37_165
*1586 FILLER_37_169
*1587 FILLER_37_178
*1588 FILLER_37_189
*1589 FILLER_37_198
*1590 FILLER_37_202
*1591 FILLER_37_205
*1592 FILLER_37_216
*1593 FILLER_37_225
*1594 FILLER_37_236
*1595 FILLER_37_248
*1596 FILLER_37_260
*1597 FILLER_37_272
*1598 FILLER_37_281
*1599 FILLER_37_293
*1600 FILLER_37_3
*1601 FILLER_37_36
*1602 FILLER_37_49
*1603 FILLER_37_55
*1604 FILLER_37_57
*1605 FILLER_37_67
*1606 FILLER_37_79
*1607 FILLER_37_91
*1608 FILLER_38_100
*1609 FILLER_38_107
*1610 FILLER_38_119
*1611 FILLER_38_123
*1612 FILLER_38_129
*1613 FILLER_38_138
*1614 FILLER_38_141
*1615 FILLER_38_146
*1616 FILLER_38_158
*1617 FILLER_38_166
*1618 FILLER_38_17
*1619 FILLER_38_170
*1620 FILLER_38_179
*1621 FILLER_38_189
*1622 FILLER_38_195
*1623 FILLER_38_197
*1624 FILLER_38_207
*1625 FILLER_38_218
*1626 FILLER_38_229
*1627 FILLER_38_241
*1628 FILLER_38_249
*1629 FILLER_38_253
*1630 FILLER_38_26
*1631 FILLER_38_265
*1632 FILLER_38_277
*1633 FILLER_38_289
*1634 FILLER_38_29
*1635 FILLER_38_297
*1636 FILLER_38_3
*1637 FILLER_38_37
*1638 FILLER_38_49
*1639 FILLER_38_56
*1640 FILLER_38_65
*1641 FILLER_38_73
*1642 FILLER_38_79
*1643 FILLER_38_83
*1644 FILLER_38_85
*1645 FILLER_38_92
*1646 FILLER_39_103
*1647 FILLER_39_110
*1648 FILLER_39_113
*1649 FILLER_39_119
*1650 FILLER_39_12
*1651 FILLER_39_131
*1652 FILLER_39_139
*1653 FILLER_39_147
*1654 FILLER_39_162
*1655 FILLER_39_169
*1656 FILLER_39_181
*1657 FILLER_39_19
*1658 FILLER_39_190
*1659 FILLER_39_198
*1660 FILLER_39_206
*1661 FILLER_39_212