*SPEF "ieee 1481-1999"
*DESIGN "diferential_muxpga"
*DATE "11:11:11 Fri 11 11, 1111"
*VENDOR "OpenRCX"
*PROGRAM "Parallel Extraction"
*VERSION "1.0"
*DESIGN_FLOW "NAME_SCOPE LOCAL" "PIN_CAP NONE"
*DIVIDER /
*DELIMITER :
*BUS_DELIMITER []
*T_UNIT 1 NS
*C_UNIT 1 PF
*R_UNIT 1 OHM
*L_UNIT 1 HENRY

*NAME_MAP
*1 io_in[0]
*2 io_in[1]
*3 io_in[2]
*4 io_in[3]
*5 io_in[4]
*6 io_in[5]
*7 io_in[6]
*8 io_in[7]
*9 io_out[0]
*10 io_out[1]
*11 io_out[2]
*12 io_out[3]
*13 io_out[4]
*14 io_out[5]
*15 io_out[6]
*16 io_out[7]
*19 _0000_
*20 _0001_
*21 _0002_
*22 _0003_
*23 _0004_
*24 _0005_
*25 _0006_
*26 _0007_
*27 _0008_
*28 _0009_
*29 _0010_
*30 _0011_
*31 _0012_
*32 _0013_
*33 _0014_
*34 _0015_
*35 _0016_
*36 _0017_
*37 _0018_
*38 _0019_
*39 _0020_
*40 _0021_
*41 _0022_
*42 _0023_
*43 _0024_
*44 _0025_
*45 _0026_
*46 _0027_
*47 _0028_
*48 _0029_
*49 _0030_
*50 _0031_
*51 _0032_
*52 _0033_
*53 _0034_
*54 _0035_
*55 _0036_
*56 _0037_
*57 _0038_
*58 _0039_
*59 _0040_
*60 _0041_
*61 _0042_
*62 _0043_
*63 _0044_
*64 _0045_
*65 _0046_
*66 _0047_
*67 _0048_
*68 _0049_
*69 _0050_
*70 _0051_
*71 _0052_
*72 _0053_
*73 _0054_
*74 _0055_
*75 _0056_
*76 _0057_
*77 _0058_
*78 _0059_
*79 _0060_
*80 _0061_
*81 _0062_
*82 _0063_
*83 _0064_
*84 _0065_
*85 _0066_
*86 _0067_
*87 _0068_
*88 _0069_
*89 _0070_
*90 _0071_
*91 _0072_
*92 _0073_
*93 _0074_
*94 _0075_
*95 _0076_
*96 _0077_
*97 _0078_
*98 _0079_
*99 _0080_
*100 _0081_
*101 _0082_
*102 _0083_
*103 _0084_
*104 _0085_
*105 _0086_
*106 _0087_
*107 _0088_
*108 _0089_
*109 _0090_
*110 _0091_
*111 _0092_
*112 _0093_
*113 _0094_
*114 _0095_
*115 _0096_
*116 _0097_
*117 _0098_
*118 _0099_
*119 _0100_
*120 _0101_
*121 _0102_
*122 _0103_
*123 _0104_
*124 _0105_
*125 _0106_
*126 _0107_
*127 _0108_
*128 _0109_
*129 _0110_
*130 _0111_
*131 _0112_
*132 _0113_
*133 _0114_
*134 _0115_
*135 _0116_
*136 _0117_
*137 _0118_
*138 _0119_
*139 _0120_
*140 _0121_
*141 _0122_
*142 _0123_
*143 _0124_
*144 _0125_
*145 _0126_
*146 _0127_
*147 _0128_
*148 _0129_
*149 _0130_
*150 _0131_
*151 _0132_
*152 _0133_
*153 _0134_
*154 _0135_
*155 _0136_
*156 _0137_
*157 _0138_
*158 _0139_
*159 _0140_
*160 _0141_
*161 _0142_
*162 _0143_
*163 _0144_
*164 _0145_
*165 _0146_
*166 _0147_
*167 _0148_
*168 _0149_
*169 _0150_
*170 _0151_
*171 _0152_
*172 _0153_
*173 _0154_
*174 _0155_
*175 _0156_
*176 _0157_
*177 _0158_
*178 _0159_
*179 _0160_
*180 _0161_
*181 _0162_
*182 _0163_
*183 _0164_
*184 _0165_
*185 _0166_
*186 _0167_
*187 _0168_
*188 _0169_
*189 _0170_
*190 _0171_
*191 _0172_
*192 _0173_
*193 _0174_
*194 _0175_
*195 _0176_
*196 _0177_
*197 _0178_
*198 _0179_
*199 _0180_
*200 _0181_
*201 _0182_
*202 _0183_
*203 _0184_
*204 _0185_
*205 _0186_
*206 _0187_
*207 _0188_
*208 _0189_
*209 _0190_
*210 _0191_
*211 _0192_
*212 _0193_
*213 _0194_
*214 _0195_
*215 _0196_
*216 _0197_
*217 _0198_
*218 _0199_
*219 _0200_
*220 _0201_
*221 _0202_
*222 _0203_
*223 _0204_
*224 _0205_
*225 _0206_
*226 _0207_
*227 _0208_
*228 _0209_
*229 _0210_
*230 _0211_
*231 _0212_
*232 _0213_
*233 _0214_
*234 _0215_
*235 _0216_
*236 _0217_
*237 _0218_
*238 _0219_
*239 _0220_
*240 _0221_
*241 _0222_
*242 _0223_
*243 _0224_
*244 _0225_
*245 _0226_
*246 _0227_
*247 _0228_
*248 _0229_
*249 _0230_
*250 _0231_
*251 _0232_
*252 _0233_
*253 _0234_
*254 _0235_
*255 _0236_
*256 _0237_
*257 _0238_
*258 _0239_
*259 _0240_
*260 _0241_
*261 _0242_
*262 _0243_
*263 _0244_
*264 _0245_
*265 _0246_
*266 _0247_
*267 _0248_
*268 _0249_
*269 _0250_
*270 _0251_
*271 _0252_
*272 _0253_
*273 _0254_
*274 _0255_
*275 _0256_
*276 _0257_
*277 _0258_
*278 _0259_
*279 _0260_
*280 _0261_
*281 _0262_
*282 _0263_
*283 _0264_
*284 _0265_
*285 _0266_
*286 _0267_
*287 _0268_
*288 _0269_
*289 _0270_
*290 _0271_
*291 _0272_
*292 _0273_
*293 _0274_
*294 _0275_
*295 _0276_
*296 _0277_
*297 _0278_
*298 _0279_
*299 _0280_
*300 _0281_
*301 _0282_
*302 _0283_
*303 _0284_
*304 _0285_
*305 _0286_
*306 _0287_
*307 _0288_
*308 _0289_
*309 _0290_
*310 _0291_
*311 _0292_
*312 _0293_
*313 _0294_
*314 _0295_
*315 _0296_
*316 _0297_
*317 _0298_
*318 _0299_
*319 _0300_
*320 _0301_
*321 _0302_
*322 _0303_
*323 _0304_
*324 _0305_
*325 _0306_
*326 _0307_
*327 _0308_
*328 _0309_
*329 _0310_
*330 _0311_
*331 _0312_
*332 _0313_
*333 _0314_
*334 _0315_
*335 _0316_
*336 _0317_
*337 _0318_
*338 _0319_
*339 _0320_
*340 _0321_
*341 _0322_
*342 _0323_
*343 _0324_
*344 _0325_
*345 _0326_
*346 _0327_
*347 _0328_
*348 _0329_
*349 _0330_
*350 _0331_
*351 _0332_
*352 _0333_
*353 _0334_
*354 _0335_
*355 _0336_
*356 _0337_
*357 _0338_
*358 _0339_
*359 _0340_
*360 _0341_
*361 _0342_
*362 _0343_
*363 _0344_
*364 _0345_
*365 _0346_
*366 _0347_
*367 _0348_
*368 _0349_
*369 _0350_
*370 _0351_
*371 _0352_
*372 _0353_
*373 _0354_
*374 _0355_
*375 _0356_
*376 _0357_
*377 _0358_
*378 _0359_
*379 _0360_
*380 _0361_
*381 _0362_
*382 _0363_
*383 _0364_
*384 _0365_
*385 _0366_
*386 _0367_
*387 _0368_
*388 _0369_
*389 _0370_
*390 _0371_
*391 _0372_
*392 _0373_
*393 _0374_
*394 _0375_
*395 _0376_
*396 _0377_
*397 _0378_
*398 _0379_
*399 _0380_
*400 _0381_
*401 _0382_
*402 _0383_
*403 _0384_
*404 _0385_
*405 _0386_
*406 _0387_
*407 _0388_
*408 _0389_
*409 _0390_
*410 _0391_
*411 _0392_
*412 _0393_
*413 _0394_
*414 _0395_
*415 _0396_
*416 _0397_
*417 _0398_
*418 _0399_
*419 _0400_
*420 _0401_
*421 _0402_
*422 _0403_
*423 _0404_
*424 _0405_
*425 _0406_
*426 _0407_
*427 _0408_
*428 _0409_
*429 _0410_
*430 _0411_
*431 _0412_
*432 _0413_
*433 _0414_
*434 _0415_
*435 _0416_
*436 _0417_
*437 _0418_
*438 _0419_
*439 _0420_
*440 _0421_
*441 _0422_
*442 _0423_
*443 _0424_
*444 _0425_
*445 _0426_
*446 _0427_
*447 _0428_
*448 _0429_
*449 _0430_
*450 _0431_
*451 _0432_
*452 _0433_
*453 _0434_
*454 _0435_
*455 _0436_
*456 _0437_
*457 _0438_
*458 _0439_
*459 _0440_
*460 _0441_
*461 _0442_
*462 _0443_
*463 _0444_
*464 _0445_
*465 _0446_
*466 _0447_
*467 _0448_
*468 _0449_
*469 _0450_
*470 _0451_
*471 _0452_
*472 _0453_
*473 _0454_
*474 _0455_
*475 _0456_
*476 _0457_
*477 _0458_
*478 _0459_
*479 _0460_
*480 _0461_
*481 _0462_
*482 _0463_
*483 _0464_
*484 _0465_
*485 _0466_
*486 _0467_
*487 _0468_
*488 _0469_
*489 _0470_
*490 _0471_
*491 _0472_
*492 _0473_
*493 _0474_
*494 _0475_
*495 _0476_
*496 _0477_
*497 _0478_
*498 _0479_
*499 _0480_
*500 _0481_
*501 _0482_
*502 _0483_
*503 _0484_
*504 _0485_
*505 _0486_
*506 _0487_
*507 _0488_
*508 _0489_
*509 _0490_
*510 _0491_
*511 _0492_
*512 _0493_
*513 _0494_
*514 _0495_
*515 _0496_
*516 _0497_
*517 _0498_
*518 _0499_
*519 _0500_
*520 _0501_
*521 _0502_
*522 _0503_
*523 _0504_
*524 _0505_
*525 _0506_
*526 _0507_
*527 _0508_
*528 _0509_
*529 _0510_
*530 _0511_
*531 _0512_
*532 _0513_
*533 _0514_
*534 _0515_
*535 _0516_
*536 _0517_
*537 _0518_
*538 _0519_
*539 _0520_
*540 _0521_
*541 _0522_
*542 _0523_
*543 _0524_
*544 _0525_
*545 _0526_
*546 _0527_
*547 _0528_
*548 _0529_
*549 _0530_
*550 _0531_
*551 _0532_
*552 _0533_
*553 _0534_
*554 _0535_
*555 _0536_
*556 _0537_
*557 _0538_
*558 _0539_
*559 _0540_
*560 _0541_
*561 _0542_
*562 _0543_
*563 _0544_
*564 _0545_
*565 _0546_
*566 _0547_
*567 _0548_
*568 _0549_
*569 _0550_
*570 _0551_
*571 _0552_
*572 _0553_
*573 _0554_
*574 _0555_
*575 _0556_
*576 _0557_
*577 _0558_
*578 _0559_
*579 _0560_
*580 _0561_
*581 _0562_
*582 _0563_
*583 _0564_
*584 _0565_
*585 _0566_
*586 _0567_
*587 _0568_
*588 _0569_
*589 _0570_
*590 _0571_
*591 _0572_
*592 _0573_
*593 _0574_
*594 _0575_
*595 _0576_
*596 _0577_
*597 _0578_
*598 _0579_
*599 _0580_
*600 _0581_
*601 _0582_
*602 _0583_
*603 _0584_
*604 _0585_
*605 _0586_
*606 _0587_
*607 _0588_
*608 _0589_
*609 _0590_
*610 _0591_
*611 _0592_
*612 _0593_
*613 _0594_
*614 _0595_
*615 _0596_
*616 _0597_
*617 _0598_
*618 _0599_
*619 _0600_
*620 _0601_
*621 _0602_
*622 _0603_
*623 _0604_
*624 _0605_
*625 _0606_
*626 _0607_
*627 _0608_
*628 _0609_
*629 _0610_
*630 _0611_
*631 _0612_
*632 _0613_
*633 _0614_
*634 _0615_
*635 _0616_
*636 _0617_
*637 _0618_
*638 _0619_
*639 _0620_
*640 _0621_
*641 _0622_
*642 _0623_
*643 _0624_
*644 _0625_
*645 _0626_
*646 _0627_
*647 _0628_
*648 _0629_
*649 _0630_
*650 _0631_
*651 _0632_
*652 _0633_
*653 _0634_
*654 _0635_
*655 _0636_
*656 _0637_
*657 _0638_
*658 _0639_
*659 _0640_
*660 _0641_
*661 _0642_
*662 _0643_
*663 _0644_
*664 _0645_
*665 _0646_
*666 _0647_
*667 _0648_
*668 _0649_
*669 _0650_
*670 _0651_
*671 _0652_
*672 _0653_
*673 _0654_
*674 _0655_
*675 _0656_
*676 _0657_
*677 _0658_
*678 _0659_
*679 _0660_
*680 _0661_
*681 _0662_
*682 _0663_
*683 _0664_
*684 _0665_
*685 _0666_
*686 _0667_
*687 _0668_
*688 _0669_
*689 _0670_
*690 _0671_
*691 _0672_
*692 _0673_
*693 _0674_
*694 _0675_
*695 _0676_
*696 _0677_
*697 _0678_
*698 _0679_
*699 _0680_
*700 _0681_
*701 _0682_
*702 _0683_
*703 _0684_
*704 _0685_
*705 _0686_
*706 _0687_
*707 _0688_
*708 _0689_
*709 _0690_
*710 _0691_
*711 _0692_
*712 _0693_
*713 _0694_
*714 _0695_
*715 _0696_
*716 _0697_
*717 _0698_
*718 _0699_
*719 _0700_
*720 _0701_
*721 _0702_
*722 _0703_
*723 _0704_
*724 _0705_
*725 _0706_
*726 _0707_
*727 _0708_
*728 _0709_
*729 _0710_
*730 _0711_
*731 _0712_
*732 _0713_
*733 _0714_
*734 _0715_
*735 _0716_
*736 _0717_
*737 _0718_
*738 _0719_
*739 _0720_
*740 _0721_
*741 _0722_
*742 _0723_
*743 _0724_
*744 _0725_
*745 _0726_
*746 _0727_
*747 _0728_
*748 _0729_
*749 _0730_
*750 _0731_
*751 _0732_
*752 _0733_
*753 _0734_
*754 _0735_
*755 _0736_
*756 _0737_
*757 _0738_
*758 _0739_
*759 _0740_
*760 _0741_
*761 _0742_
*762 _0743_
*763 _0744_
*764 _0745_
*765 _0746_
*766 _0747_
*767 _0748_
*768 _0749_
*769 _0750_
*770 _0751_
*771 _0752_
*772 _0753_
*773 _0754_
*774 _0755_
*775 _0756_
*776 _0757_
*777 _0758_
*778 _0759_
*779 _0760_
*780 _0761_
*781 _0762_
*782 _0763_
*783 _0764_
*784 _0765_
*785 _0766_
*786 _0767_
*787 _0768_
*788 _0769_
*789 _0770_
*790 _0771_
*791 _0772_
*792 _0773_
*793 _0774_
*794 _0775_
*795 _0776_
*796 _0777_
*797 _0778_
*798 _0779_
*799 _0780_
*800 _0781_
*801 _0782_
*802 _0783_
*803 _0784_
*804 _0785_
*805 _0786_
*806 _0787_
*807 _0788_
*808 _0789_
*809 _0790_
*810 _0791_
*811 _0792_
*812 _0793_
*813 _0794_
*814 _0795_
*815 _0796_
*816 _0797_
*817 _0798_
*818 _0799_
*819 _0800_
*820 _0801_
*821 _0802_
*822 _0803_
*823 _0804_
*824 _0805_
*825 _0806_
*826 _0807_
*827 _0808_
*828 _0809_
*829 _0810_
*830 _0811_
*831 _0812_
*832 _0813_
*833 _0814_
*834 _0815_
*835 _0816_
*836 _0817_
*837 _0818_
*838 _0819_
*839 _0820_
*840 _0821_
*841 _0822_
*842 _0823_
*843 _0824_
*844 _0825_
*845 _0826_
*846 _0827_
*847 _0828_
*848 _0829_
*849 _0830_
*850 _0831_
*851 _0832_
*852 _0833_
*853 _0834_
*854 _0835_
*855 _0836_
*856 _0837_
*857 _0838_
*858 _0839_
*859 _0840_
*860 _0841_
*861 _0842_
*862 _0843_
*863 _0844_
*864 _0845_
*865 _0846_
*866 _0847_
*867 _0848_
*868 _0849_
*869 _0850_
*870 _0851_
*871 _0852_
*872 _0853_
*873 _0854_
*874 _0855_
*875 _0856_
*876 _0857_
*877 _0858_
*878 _0859_
*879 _0860_
*880 _0861_
*881 _0862_
*882 _0863_
*883 _0864_
*884 _0865_
*885 _0866_
*886 _0867_
*887 _0868_
*888 _0869_
*889 _0870_
*890 _0871_
*891 _0872_
*892 _0873_
*893 _0874_
*894 _0875_
*895 _0876_
*896 _0877_
*897 _0878_
*898 _0879_
*899 _0880_
*900 _0881_
*901 _0882_
*902 _0883_
*903 _0884_
*904 _0885_
*905 _0886_
*906 _0887_
*907 _0888_
*908 _0889_
*909 _0890_
*910 _0891_
*911 _0892_
*912 _0893_
*913 _0894_
*914 _0895_
*915 _0896_
*916 _0897_
*917 _0898_
*918 _0899_
*919 _0900_
*920 _0901_
*921 _0902_
*922 clknet_0_io_in[0]
*923 clknet_3_0__leaf_io_in[0]
*924 clknet_3_1__leaf_io_in[0]
*925 clknet_3_2__leaf_io_in[0]
*926 clknet_3_3__leaf_io_in[0]
*927 clknet_3_4__leaf_io_in[0]
*928 clknet_3_5__leaf_io_in[0]
*929 clknet_3_6__leaf_io_in[0]
*930 clknet_3_7__leaf_io_in[0]
*931 genrow\[1\]\.gencol\[0\]\.genblk1\.c\.cfg\[0\]
*932 genrow\[1\]\.gencol\[0\]\.genblk1\.c\.cfg\[1\]
*933 genrow\[1\]\.gencol\[0\]\.genblk1\.c\.cfg\[2\]
*934 genrow\[1\]\.gencol\[0\]\.genblk1\.c\.cfg\[3\]
*935 genrow\[1\]\.gencol\[0\]\.genblk1\.c\.dff\[0\]
*936 genrow\[1\]\.gencol\[0\]\.genblk1\.c\.dff\[1\]
*937 genrow\[1\]\.gencol\[0\]\.genblk1\.c\.dff\[2\]
*938 genrow\[1\]\.gencol\[0\]\.genblk1\.c\.dff\[3\]
*939 genrow\[1\]\.gencol\[0\]\.genblk1\.c\.q\[0\]
*940 genrow\[1\]\.gencol\[0\]\.genblk1\.c\.q\[1\]
*941 genrow\[1\]\.gencol\[0\]\.genblk1\.c\.q\[2\]
*942 genrow\[1\]\.gencol\[0\]\.genblk1\.c\.q\[3\]
*943 genrow\[1\]\.gencol\[0\]\.genblk1\.c\.qq\[0\]
*944 genrow\[1\]\.gencol\[0\]\.genblk1\.c\.qq\[1\]
*945 genrow\[1\]\.gencol\[0\]\.genblk1\.c\.qq\[2\]
*946 genrow\[1\]\.gencol\[0\]\.genblk1\.c\.qq\[3\]
*947 genrow\[1\]\.gencol\[0\]\.genblk1\.inmux1\.cell_q\[0\]
*948 genrow\[1\]\.gencol\[0\]\.genblk1\.inmux1\.cell_q\[10\]
*949 genrow\[1\]\.gencol\[0\]\.genblk1\.inmux1\.cell_q\[11\]
*950 genrow\[1\]\.gencol\[0\]\.genblk1\.inmux1\.cell_q\[12\]
*951 genrow\[1\]\.gencol\[0\]\.genblk1\.inmux1\.cell_q\[13\]
*952 genrow\[1\]\.gencol\[0\]\.genblk1\.inmux1\.cell_q\[14\]
*953 genrow\[1\]\.gencol\[0\]\.genblk1\.inmux1\.cell_q\[15\]
*954 genrow\[1\]\.gencol\[0\]\.genblk1\.inmux1\.cell_q\[16\]
*955 genrow\[1\]\.gencol\[0\]\.genblk1\.inmux1\.cell_q\[17\]
*956 genrow\[1\]\.gencol\[0\]\.genblk1\.inmux1\.cell_q\[18\]
*957 genrow\[1\]\.gencol\[0\]\.genblk1\.inmux1\.cell_q\[19\]
*958 genrow\[1\]\.gencol\[0\]\.genblk1\.inmux1\.cell_q\[1\]
*959 genrow\[1\]\.gencol\[0\]\.genblk1\.inmux1\.cell_q\[20\]
*960 genrow\[1\]\.gencol\[0\]\.genblk1\.inmux1\.cell_q\[21\]
*961 genrow\[1\]\.gencol\[0\]\.genblk1\.inmux1\.cell_q\[22\]
*962 genrow\[1\]\.gencol\[0\]\.genblk1\.inmux1\.cell_q\[23\]
*963 genrow\[1\]\.gencol\[0\]\.genblk1\.inmux1\.cell_q\[24\]
*964 genrow\[1\]\.gencol\[0\]\.genblk1\.inmux1\.cell_q\[25\]
*965 genrow\[1\]\.gencol\[0\]\.genblk1\.inmux1\.cell_q\[26\]
*966 genrow\[1\]\.gencol\[0\]\.genblk1\.inmux1\.cell_q\[27\]
*967 genrow\[1\]\.gencol\[0\]\.genblk1\.inmux1\.cell_q\[28\]
*968 genrow\[1\]\.gencol\[0\]\.genblk1\.inmux1\.cell_q\[29\]
*969 genrow\[1\]\.gencol\[0\]\.genblk1\.inmux1\.cell_q\[2\]
*970 genrow\[1\]\.gencol\[0\]\.genblk1\.inmux1\.cell_q\[30\]
*971 genrow\[1\]\.gencol\[0\]\.genblk1\.inmux1\.cell_q\[31\]
*972 genrow\[1\]\.gencol\[0\]\.genblk1\.inmux1\.cell_q\[3\]
*973 genrow\[1\]\.gencol\[0\]\.genblk1\.inmux1\.cell_q\[4\]
*974 genrow\[1\]\.gencol\[0\]\.genblk1\.inmux1\.cell_q\[5\]
*975 genrow\[1\]\.gencol\[0\]\.genblk1\.inmux1\.cell_q\[6\]
*976 genrow\[1\]\.gencol\[0\]\.genblk1\.inmux1\.cell_q\[7\]
*977 genrow\[1\]\.gencol\[0\]\.genblk1\.inmux1\.cell_q\[8\]
*978 genrow\[1\]\.gencol\[0\]\.genblk1\.inmux1\.cell_q\[9\]
*979 genrow\[1\]\.gencol\[0\]\.genblk1\.inmux1\.sel\[0\]
*980 genrow\[1\]\.gencol\[0\]\.genblk1\.inmux1\.sel\[1\]
*981 genrow\[1\]\.gencol\[0\]\.genblk1\.inmux2\.sel\[0\]
*982 genrow\[1\]\.gencol\[0\]\.genblk1\.inmux2\.sel\[1\]
*983 genrow\[1\]\.gencol\[1\]\.genblk1\.c\.cfg\[0\]
*984 genrow\[1\]\.gencol\[1\]\.genblk1\.c\.cfg\[1\]
*985 genrow\[1\]\.gencol\[1\]\.genblk1\.c\.cfg\[2\]
*986 genrow\[1\]\.gencol\[1\]\.genblk1\.c\.cfg\[3\]
*987 genrow\[1\]\.gencol\[1\]\.genblk1\.c\.dff\[0\]
*988 genrow\[1\]\.gencol\[1\]\.genblk1\.c\.dff\[1\]
*989 genrow\[1\]\.gencol\[1\]\.genblk1\.c\.dff\[2\]
*990 genrow\[1\]\.gencol\[1\]\.genblk1\.c\.dff\[3\]
*991 genrow\[1\]\.gencol\[1\]\.genblk1\.c\.qq\[0\]
*992 genrow\[1\]\.gencol\[1\]\.genblk1\.c\.qq\[1\]
*993 genrow\[1\]\.gencol\[1\]\.genblk1\.c\.qq\[2\]
*994 genrow\[1\]\.gencol\[1\]\.genblk1\.c\.qq\[3\]
*995 genrow\[1\]\.gencol\[1\]\.genblk1\.inmux1\.sel\[0\]
*996 genrow\[1\]\.gencol\[1\]\.genblk1\.inmux1\.sel\[1\]
*997 genrow\[1\]\.gencol\[1\]\.genblk1\.inmux2\.sel\[0\]
*998 genrow\[1\]\.gencol\[1\]\.genblk1\.inmux2\.sel\[1\]
*999 genrow\[1\]\.gencol\[2\]\.genblk1\.c\.cfg\[0\]
*1000 genrow\[1\]\.gencol\[2\]\.genblk1\.c\.cfg\[1\]
*1001 genrow\[1\]\.gencol\[2\]\.genblk1\.c\.cfg\[2\]
*1002 genrow\[1\]\.gencol\[2\]\.genblk1\.c\.cfg\[3\]
*1003 genrow\[1\]\.gencol\[2\]\.genblk1\.c\.dff\[0\]
*1004 genrow\[1\]\.gencol\[2\]\.genblk1\.c\.dff\[1\]
*1005 genrow\[1\]\.gencol\[2\]\.genblk1\.c\.dff\[2\]
*1006 genrow\[1\]\.gencol\[2\]\.genblk1\.c\.dff\[3\]
*1007 genrow\[1\]\.gencol\[2\]\.genblk1\.c\.qq\[0\]
*1008 genrow\[1\]\.gencol\[2\]\.genblk1\.c\.qq\[1\]
*1009 genrow\[1\]\.gencol\[2\]\.genblk1\.c\.qq\[2\]
*1010 genrow\[1\]\.gencol\[2\]\.genblk1\.c\.qq\[3\]
*1011 genrow\[1\]\.gencol\[2\]\.genblk1\.inmux1\.sel\[0\]
*1012 genrow\[1\]\.gencol\[2\]\.genblk1\.inmux1\.sel\[1\]
*1013 genrow\[1\]\.gencol\[2\]\.genblk1\.inmux2\.sel\[0\]
*1014 genrow\[1\]\.gencol\[2\]\.genblk1\.inmux2\.sel\[1\]
*1015 genrow\[2\]\.gencol\[0\]\.genblk1\.c\.cfg\[0\]
*1016 genrow\[2\]\.gencol\[0\]\.genblk1\.c\.cfg\[1\]
*1017 genrow\[2\]\.gencol\[0\]\.genblk1\.c\.cfg\[2\]
*1018 genrow\[2\]\.gencol\[0\]\.genblk1\.c\.cfg\[3\]
*1019 genrow\[2\]\.gencol\[0\]\.genblk1\.c\.dff\[0\]
*1020 genrow\[2\]\.gencol\[0\]\.genblk1\.c\.dff\[1\]
*1021 genrow\[2\]\.gencol\[0\]\.genblk1\.c\.dff\[2\]
*1022 genrow\[2\]\.gencol\[0\]\.genblk1\.c\.dff\[3\]
*1023 genrow\[2\]\.gencol\[0\]\.genblk1\.c\.qq\[0\]
*1024 genrow\[2\]\.gencol\[0\]\.genblk1\.c\.qq\[1\]
*1025 genrow\[2\]\.gencol\[0\]\.genblk1\.c\.qq\[2\]
*1026 genrow\[2\]\.gencol\[0\]\.genblk1\.c\.qq\[3\]
*1027 genrow\[2\]\.gencol\[0\]\.genblk1\.inmux1\.sel\[0\]
*1028 genrow\[2\]\.gencol\[0\]\.genblk1\.inmux1\.sel\[1\]
*1029 genrow\[2\]\.gencol\[0\]\.genblk1\.inmux2\.sel\[0\]
*1030 genrow\[2\]\.gencol\[0\]\.genblk1\.inmux2\.sel\[1\]
*1031 genrow\[2\]\.gencol\[1\]\.genblk1\.c\.cfg\[0\]
*1032 genrow\[2\]\.gencol\[1\]\.genblk1\.c\.cfg\[1\]
*1033 genrow\[2\]\.gencol\[1\]\.genblk1\.c\.cfg\[2\]
*1034 genrow\[2\]\.gencol\[1\]\.genblk1\.c\.cfg\[3\]
*1035 genrow\[2\]\.gencol\[1\]\.genblk1\.c\.dff\[0\]
*1036 genrow\[2\]\.gencol\[1\]\.genblk1\.c\.dff\[1\]
*1037 genrow\[2\]\.gencol\[1\]\.genblk1\.c\.dff\[2\]
*1038 genrow\[2\]\.gencol\[1\]\.genblk1\.c\.dff\[3\]
*1039 genrow\[2\]\.gencol\[1\]\.genblk1\.c\.qq\[0\]
*1040 genrow\[2\]\.gencol\[1\]\.genblk1\.c\.qq\[1\]
*1041 genrow\[2\]\.gencol\[1\]\.genblk1\.c\.qq\[2\]
*1042 genrow\[2\]\.gencol\[1\]\.genblk1\.c\.qq\[3\]
*1043 genrow\[2\]\.gencol\[1\]\.genblk1\.inmux1\.sel\[0\]
*1044 genrow\[2\]\.gencol\[1\]\.genblk1\.inmux1\.sel\[1\]
*1045 genrow\[2\]\.gencol\[1\]\.genblk1\.inmux2\.sel\[0\]
*1046 genrow\[2\]\.gencol\[1\]\.genblk1\.inmux2\.sel\[1\]
*1047 genrow\[2\]\.gencol\[2\]\.genblk1\.c\.cfg\[0\]
*1048 genrow\[2\]\.gencol\[2\]\.genblk1\.c\.cfg\[1\]
*1049 genrow\[2\]\.gencol\[2\]\.genblk1\.c\.cfg\[2\]
*1050 genrow\[2\]\.gencol\[2\]\.genblk1\.c\.cfg\[3\]
*1051 genrow\[2\]\.gencol\[2\]\.genblk1\.c\.dff\[0\]
*1052 genrow\[2\]\.gencol\[2\]\.genblk1\.c\.dff\[1\]
*1053 genrow\[2\]\.gencol\[2\]\.genblk1\.c\.dff\[2\]
*1054 genrow\[2\]\.gencol\[2\]\.genblk1\.c\.dff\[3\]
*1055 genrow\[2\]\.gencol\[2\]\.genblk1\.c\.qq\[0\]
*1056 genrow\[2\]\.gencol\[2\]\.genblk1\.c\.qq\[1\]
*1057 genrow\[2\]\.gencol\[2\]\.genblk1\.c\.qq\[2\]
*1058 genrow\[2\]\.gencol\[2\]\.genblk1\.c\.qq\[3\]
*1059 genrow\[2\]\.gencol\[2\]\.genblk1\.inmux1\.sel\[0\]
*1060 genrow\[2\]\.gencol\[2\]\.genblk1\.inmux1\.sel\[1\]
*1061 genrow\[2\]\.gencol\[2\]\.genblk1\.inmux2\.sel\[0\]
*1062 genrow\[2\]\.gencol\[2\]\.genblk1\.inmux2\.sel\[1\]
*1063 genrow\[3\]\.gencol\[0\]\.genblk1\.c\.cfg\[0\]
*1064 genrow\[3\]\.gencol\[0\]\.genblk1\.c\.cfg\[1\]
*1065 genrow\[3\]\.gencol\[0\]\.genblk1\.c\.cfg\[2\]
*1066 genrow\[3\]\.gencol\[0\]\.genblk1\.c\.cfg\[3\]
*1067 genrow\[3\]\.gencol\[0\]\.genblk1\.c\.dff\[0\]
*1068 genrow\[3\]\.gencol\[0\]\.genblk1\.c\.dff\[1\]
*1069 genrow\[3\]\.gencol\[0\]\.genblk1\.c\.dff\[2\]
*1070 genrow\[3\]\.gencol\[0\]\.genblk1\.c\.dff\[3\]
*1071 genrow\[3\]\.gencol\[0\]\.genblk1\.c\.qq\[0\]
*1072 genrow\[3\]\.gencol\[0\]\.genblk1\.c\.qq\[1\]
*1073 genrow\[3\]\.gencol\[0\]\.genblk1\.c\.qq\[2\]
*1074 genrow\[3\]\.gencol\[0\]\.genblk1\.c\.qq\[3\]
*1075 genrow\[3\]\.gencol\[0\]\.genblk1\.inmux1\.sel\[0\]
*1076 genrow\[3\]\.gencol\[0\]\.genblk1\.inmux1\.sel\[1\]
*1077 genrow\[3\]\.gencol\[0\]\.genblk1\.inmux2\.sel\[0\]
*1078 genrow\[3\]\.gencol\[0\]\.genblk1\.inmux2\.sel\[1\]
*1079 genrow\[3\]\.gencol\[1\]\.genblk1\.c\.cfg\[0\]
*1080 genrow\[3\]\.gencol\[1\]\.genblk1\.c\.cfg\[1\]
*1081 genrow\[3\]\.gencol\[1\]\.genblk1\.c\.cfg\[2\]
*1082 genrow\[3\]\.gencol\[1\]\.genblk1\.c\.cfg\[3\]
*1083 genrow\[3\]\.gencol\[1\]\.genblk1\.c\.dff\[0\]
*1084 genrow\[3\]\.gencol\[1\]\.genblk1\.c\.dff\[1\]
*1085 genrow\[3\]\.gencol\[1\]\.genblk1\.c\.dff\[2\]
*1086 genrow\[3\]\.gencol\[1\]\.genblk1\.c\.dff\[3\]
*1087 genrow\[3\]\.gencol\[1\]\.genblk1\.c\.qq\[0\]
*1088 genrow\[3\]\.gencol\[1\]\.genblk1\.c\.qq\[1\]
*1089 genrow\[3\]\.gencol\[1\]\.genblk1\.c\.qq\[2\]
*1090 genrow\[3\]\.gencol\[1\]\.genblk1\.c\.qq\[3\]
*1091 genrow\[3\]\.gencol\[1\]\.genblk1\.inmux1\.sel\[0\]
*1092 genrow\[3\]\.gencol\[1\]\.genblk1\.inmux1\.sel\[1\]
*1093 genrow\[3\]\.gencol\[1\]\.genblk1\.inmux2\.sel\[0\]
*1094 genrow\[3\]\.gencol\[1\]\.genblk1\.inmux2\.sel\[1\]
*1095 genrow\[3\]\.gencol\[2\]\.genblk1\.c\.cfg\[0\]
*1096 genrow\[3\]\.gencol\[2\]\.genblk1\.c\.cfg\[1\]
*1097 genrow\[3\]\.gencol\[2\]\.genblk1\.c\.cfg\[2\]
*1098 genrow\[3\]\.gencol\[2\]\.genblk1\.c\.cfg\[3\]
*1099 genrow\[3\]\.gencol\[2\]\.genblk1\.c\.dff\[0\]
*1100 genrow\[3\]\.gencol\[2\]\.genblk1\.c\.dff\[1\]
*1101 genrow\[3\]\.gencol\[2\]\.genblk1\.c\.dff\[2\]
*1102 genrow\[3\]\.gencol\[2\]\.genblk1\.c\.dff\[3\]
*1103 genrow\[3\]\.gencol\[2\]\.genblk1\.c\.qq\[0\]
*1104 genrow\[3\]\.gencol\[2\]\.genblk1\.c\.qq\[1\]
*1105 genrow\[3\]\.gencol\[2\]\.genblk1\.c\.qq\[2\]
*1106 genrow\[3\]\.gencol\[2\]\.genblk1\.c\.qq\[3\]
*1107 genrow\[3\]\.gencol\[2\]\.genblk1\.inmux1\.sel\[0\]
*1108 genrow\[3\]\.gencol\[2\]\.genblk1\.inmux1\.sel\[1\]
*1109 genrow\[3\]\.gencol\[2\]\.genblk1\.inmux2\.sel\[0\]
*1110 genrow\[3\]\.gencol\[2\]\.genblk1\.inmux2\.sel\[1\]
*1111 net1
*1112 net2
*1113 net3
*1114 net4
*1115 net5
*1116 net6
*1117 net7
*1118 ANTENNA_1
*1119 ANTENNA_10
*1120 ANTENNA_11
*1121 ANTENNA_12
*1122 ANTENNA_13
*1123 ANTENNA_14
*1124 ANTENNA_15
*1125 ANTENNA_16
*1126 ANTENNA_17
*1127 ANTENNA_18
*1128 ANTENNA_19
*1129 ANTENNA_2
*1130 ANTENNA_20
*1131 ANTENNA_21
*1132 ANTENNA_22
*1133 ANTENNA_23
*1134 ANTENNA_24
*1135 ANTENNA_25
*1136 ANTENNA_26
*1137 ANTENNA_27
*1138 ANTENNA_28
*1139 ANTENNA_29
*1140 ANTENNA_3
*1141 ANTENNA_30
*1142 ANTENNA_31
*1143 ANTENNA_32
*1144 ANTENNA_33
*1145 ANTENNA_34
*1146 ANTENNA_35
*1147 ANTENNA_36
*1148 ANTENNA_37
*1149 ANTENNA_38
*1150 ANTENNA_39
*1151 ANTENNA_4
*1152 ANTENNA_40
*1153 ANTENNA_41
*1154 ANTENNA_42
*1155 ANTENNA_43
*1156 ANTENNA_44
*1157 ANTENNA_45
*1158 ANTENNA_46
*1159 ANTENNA_47
*1160 ANTENNA_5
*1161 ANTENNA_6
*1162 ANTENNA_7
*1163 ANTENNA_8
*1164 ANTENNA_9
*1165 FILLER_0_107
*1166 FILLER_0_111
*1167 FILLER_0_113
*1168 FILLER_0_119
*1169 FILLER_0_131
*1170 FILLER_0_139
*1171 FILLER_0_141
*1172 FILLER_0_149
*1173 FILLER_0_161
*1174 FILLER_0_167
*1175 FILLER_0_169
*1176 FILLER_0_177
*1177 FILLER_0_187
*1178 FILLER_0_194
*1179 FILLER_0_197
*1180 FILLER_0_209
*1181 FILLER_0_216
*1182 FILLER_0_225
*1183 FILLER_0_23
*1184 FILLER_0_233
*1185 FILLER_0_240
*1186 FILLER_0_253
*1187 FILLER_0_257
*1188 FILLER_0_264
*1189 FILLER_0_27
*1190 FILLER_0_276
*1191 FILLER_0_281
*1192 FILLER_0_29
*1193 FILLER_0_293
*1194 FILLER_0_3
*1195 FILLER_0_33
*1196 FILLER_0_45
*1197 FILLER_0_50
*1198 FILLER_0_57
*1199 FILLER_0_67
*1200 FILLER_0_77
*1201 FILLER_0_83
*1202 FILLER_0_85
*1203 FILLER_0_95
*1204 FILLER_10_106
*1205 FILLER_10_114
*1206 FILLER_10_121
*1207 FILLER_10_133
*1208 FILLER_10_139
*1209 FILLER_10_141
*1210 FILLER_10_156
*1211 FILLER_10_163
*1212 FILLER_10_179
*1213 FILLER_10_189
*1214 FILLER_10_195
*1215 FILLER_10_197
*1216 FILLER_10_203
*1217 FILLER_10_207
*1218 FILLER_10_213
*1219 FILLER_10_22
*1220 FILLER_10_223
*1221 FILLER_10_233
*1222 FILLER_10_245
*1223 FILLER_10_251
*1224 FILLER_10_253
*1225 FILLER_10_263
*1226 FILLER_10_272
*1227 FILLER_10_278
*1228 FILLER_10_287
*1229 FILLER_10_29
*1230 FILLER_10_291
*1231 FILLER_10_295
*1232 FILLER_10_3
*1233 FILLER_10_47
*1234 FILLER_10_55
*1235 FILLER_10_62
*1236 FILLER_10_67
*1237 FILLER_10_75
*1238 FILLER_10_82
*1239 FILLER_10_85
*1240 FILLER_10_91
*1241 FILLER_10_98
*1242 FILLER_11_104
*1243 FILLER_11_113
*1244 FILLER_11_125
*1245 FILLER_11_143
*1246 FILLER_11_147
*1247 FILLER_11_15
*1248 FILLER_11_156
*1249 FILLER_11_160
*1250 FILLER_11_164
*1251 FILLER_11_169
*1252 FILLER_11_175
*1253 FILLER_11_183
*1254 FILLER_11_187
*1255 FILLER_11_192
*1256 FILLER_11_196
*1257 FILLER_11_205
*1258 FILLER_11_212
*1259 FILLER_11_219
*1260 FILLER_11_223
*1261 FILLER_11_225
*1262 FILLER_11_231
*1263 FILLER_11_237
*1264 FILLER_11_249
*1265 FILLER_11_256
*1266 FILLER_11_266
*1267 FILLER_11_276
*1268 FILLER_11_281
*1269 FILLER_11_287
*1270 FILLER_11_297
*1271 FILLER_11_3
*1272 FILLER_11_36
*1273 FILLER_11_48
*1274 FILLER_11_54
*1275 FILLER_11_57
*1276 FILLER_11_67
*1277 FILLER_11_71
*1278 FILLER_11_78
*1279 FILLER_11_90
*1280 FILLER_11_98
*1281 FILLER_12_104
*1282 FILLER_12_114
*1283 FILLER_12_121
*1284 FILLER_12_125
*1285 FILLER_12_132
*1286 FILLER_12_141
*1287 FILLER_12_149
*1288 FILLER_12_157
*1289 FILLER_12_165
*1290 FILLER_12_173
*1291 FILLER_12_180
*1292 FILLER_12_187
*1293 FILLER_12_194
*1294 FILLER_12_197
*1295 FILLER_12_205
*1296 FILLER_12_211
*1297 FILLER_12_219
*1298 FILLER_12_228
*1299 FILLER_12_242
*1300 FILLER_12_250
*1301 FILLER_12_253
*1302 FILLER_12_26
*1303 FILLER_12_260
*1304 FILLER_12_272
*1305 FILLER_12_280
*1306 FILLER_12_288
*1307 FILLER_12_29
*1308 FILLER_12_295
*1309 FILLER_12_3
*1310 FILLER_12_47
*1311 FILLER_12_55
*1312 FILLER_12_66
*1313 FILLER_12_76
*1314 FILLER_12_85
*1315 FILLER_12_95
*1316 FILLER_12_99
*1317 FILLER_13_105
*1318 FILLER_13_111
*1319 FILLER_13_113
*1320 FILLER_13_119
*1321 FILLER_13_127
*1322 FILLER_13_134
*1323 FILLER_13_140
*1324 FILLER_13_145
*1325 FILLER_13_15
*1326 FILLER_13_158
*1327 FILLER_13_166
*1328 FILLER_13_169
*1329 FILLER_13_178
*1330 FILLER_13_190
*1331 FILLER_13_199
*1332 FILLER_13_211
*1333 FILLER_13_222
*1334 FILLER_13_225
*1335 FILLER_13_237
*1336 FILLER_13_244
*1337 FILLER_13_253
*1338 FILLER_13_267
*1339 FILLER_13_278
*1340 FILLER_13_281
*1341 FILLER_13_289
*1342 FILLER_13_297
*1343 FILLER_13_3
*1344 FILLER_13_36
*1345 FILLER_13_48
*1346 FILLER_13_54
*1347 FILLER_13_57
*1348 FILLER_13_65
*1349 FILLER_13_76
*1350 FILLER_13_80
*1351 FILLER_13_9
*1352 FILLER_13_91
*1353 FILLER_14_105
*1354 FILLER_14_116
*1355 FILLER_14_123
*1356 FILLER_14_132
*1357 FILLER_14_141
*1358 FILLER_14_150
*1359 FILLER_14_165
*1360 FILLER_14_177
*1361 FILLER_14_185
*1362 FILLER_14_193
*1363 FILLER_14_197
*1364 FILLER_14_204
*1365 FILLER_14_213
*1366 FILLER_14_22
*1367 FILLER_14_225
*1368 FILLER_14_237
*1369 FILLER_14_247
*1370 FILLER_14_251
*1371 FILLER_14_253
*1372 FILLER_14_26
*1373 FILLER_14_264
*1374 FILLER_14_276
*1375 FILLER_14_284
*1376 FILLER_14_29
*1377 FILLER_14_292
*1378 FILLER_14_298
*1379 FILLER_14_3
*1380 FILLER_14_41
*1381 FILLER_14_62
*1382 FILLER_14_72
*1383 FILLER_14_82
*1384 FILLER_14_85
*1385 FILLER_14_97
*1386 FILLER_15_107
*1387 FILLER_15_111
*1388 FILLER_15_113
*1389 FILLER_15_121
*1390 FILLER_15_133
*1391 FILLER_15_137
*1392 FILLER_15_144
*1393 FILLER_15_154
*1394 FILLER_15_16
*1395 FILLER_15_165
*1396 FILLER_15_169
*1397 FILLER_15_177
*1398 FILLER_15_184
*1399 FILLER_15_192
*1400 FILLER_15_198
*1401 FILLER_15_206
*1402 FILLER_15_214
*1403 FILLER_15_222
*1404 FILLER_15_225
*1405 FILLER_15_240
*1406 FILLER_15_246
*1407 FILLER_15_256
*1408 FILLER_15_277
*1409 FILLER_15_281
*1410 FILLER_15_296
*1411 FILLER_15_3
*1412 FILLER_15_34
*1413 FILLER_15_54
*1414 FILLER_15_57
*1415 FILLER_15_65
*1416 FILLER_15_75
*1417 FILLER_15_8
*1418 FILLER_15_83
*1419 FILLER_15_95
*1420 FILLER_15_99
*1421 FILLER_16_100
*1422 FILLER_16_104
*1423 FILLER_16_115
*1424 FILLER_16_123
*1425 FILLER_16_131
*1426 FILLER_16_138
*1427 FILLER_16_141
*1428 FILLER_16_147
*1429 FILLER_16_159
*1430 FILLER_16_171
*1431 FILLER_16_177
*1432 FILLER_16_182
*1433 FILLER_16_194
*1434 FILLER_16_197
*1435 FILLER_16_204
*1436 FILLER_16_213
*1437 FILLER_16_225
*1438 FILLER_16_236
*1439 FILLER_16_247
*1440 FILLER_16_251
*1441 FILLER_16_253
*1442 FILLER_16_259
*1443 FILLER_16_26
*1444 FILLER_16_272
*1445 FILLER_16_280
*1446 FILLER_16_289
*1447 FILLER_16_29
*1448 FILLER_16_296
*1449 FILLER_16_3
*1450 FILLER_16_37
*1451 FILLER_16_40
*1452 FILLER_16_59
*1453 FILLER_16_73
*1454 FILLER_16_81
*1455 FILLER_16_85
*1456 FILLER_16_96
*1457 FILLER_17_104
*1458 FILLER_17_113
*1459 FILLER_17_127
*1460 FILLER_17_143
*1461 FILLER_17_15
*1462 FILLER_17_151
*1463 FILLER_17_158
*1464 FILLER_17_162
*1465 FILLER_17_166
*1466 FILLER_17_169
*1467 FILLER_17_175
*1468 FILLER_17_184
*1469 FILLER_17_194
*1470 FILLER_17_206
*1471 FILLER_17_222
*1472 FILLER_17_225
*1473 FILLER_17_233
*1474 FILLER_17_241
*1475 FILLER_17_254
*1476 FILLER_17_265
*1477 FILLER_17_274
*1478 FILLER_17_281
*1479 FILLER_17_294
*1480 FILLER_17_298
*1481 FILLER_17_3
*1482 FILLER_17_35
*1483 FILLER_17_47
*1484 FILLER_17_55
*1485 FILLER_17_57
*1486 FILLER_17_71
*1487 FILLER_17_80
*1488 FILLER_17_90
*1489 FILLER_17_94
*1490 FILLER_18_109
*1491 FILLER_18_120
*1492 FILLER_18_127
*1493 FILLER_18_134
*1494 FILLER_18_141
*1495 FILLER_18_154
*1496 FILLER_18_162
*1497 FILLER_18_174
*1498 FILLER_18_186
*1499 FILLER_18_190
*1500 FILLER_18_194
*1501 FILLER_18_197
*1502 FILLER_18_206
*1503 FILLER_18_212
*1504 FILLER_18_218
*1505 FILLER_18_229
*1506 FILLER_18_242
*1507 FILLER_18_246
*1508 FILLER_18_250
*1509 FILLER_18_253
*1510 FILLER_18_26
*1511 FILLER_18_264
*1512 FILLER_18_268
*1513 FILLER_18_275
*1514 FILLER_18_285
*1515 FILLER_18_29
*1516 FILLER_18_294
*1517 FILLER_18_298
*1518 FILLER_18_3
*1519 FILLER_18_41
*1520 FILLER_18_61
*1521 FILLER_18_81
*1522 FILLER_18_85
*1523 FILLER_18_94
*1524 FILLER_18_98
*1525 FILLER_19_103
*1526 FILLER_19_110
*1527 FILLER_19_113
*1528 FILLER_19_119
*1529 FILLER_19_128
*1530 FILLER_19_136
*1531 FILLER_19_148
*1532 FILLER_19_160
*1533 FILLER_19_166
*1534 FILLER_19_169
*1535 FILLER_19_175
*1536 FILLER_19_184
*1537 FILLER_19_194
*1538 FILLER_19_198
*1539 FILLER_19_205
*1540 FILLER_19_215
*1541 FILLER_19_22
*1542 FILLER_19_222
*1543 FILLER_19_225
*1544 FILLER_19_233
*1545 FILLER_19_237
*1546 FILLER_19_244
*1547 FILLER_19_248
*1548 FILLER_19_256
*1549 FILLER_19_269
*1550 FILLER_19_277
*1551 FILLER_19_281
*1552 FILLER_19_291
*1553 FILLER_19_3
*1554 FILLER_19_34
*1555 FILLER_19_54
*1556 FILLER_19_57
*1557 FILLER_19_75