*SPEF "ieee 1481-1999"
*DESIGN "diferential_rvb3"
*DATE "11:11:11 Fri 11 11, 1111"
*VENDOR "OpenRCX"
*PROGRAM "Parallel Extraction"
*VERSION "1.0"
*DESIGN_FLOW "NAME_SCOPE LOCAL" "PIN_CAP NONE"
*DIVIDER /
*DELIMITER :
*BUS_DELIMITER []
*T_UNIT 1 NS
*C_UNIT 1 PF
*R_UNIT 1 OHM
*L_UNIT 1 HENRY

*NAME_MAP
*1 io_in[0]
*2 io_in[1]
*3 io_in[2]
*4 io_in[3]
*5 io_in[4]
*6 io_in[5]
*7 io_in[6]
*8 io_in[7]
*9 io_out[0]
*10 io_out[1]
*11 io_out[2]
*12 io_out[3]
*13 io_out[4]
*14 io_out[5]
*15 io_out[6]
*16 io_out[7]
*19 _000_
*20 _001_
*21 _002_
*22 _003_
*23 _004_
*24 _005_
*25 _006_
*26 _007_
*27 _008_
*28 _009_
*29 _010_
*30 _011_
*31 _012_
*32 _013_
*33 _014_
*34 _015_
*35 _016_
*36 _017_
*37 _018_
*38 _019_
*39 _020_
*40 _021_
*41 _022_
*42 _023_
*43 _024_
*44 _025_
*45 _026_
*46 _027_
*47 _028_
*48 _029_
*49 _030_
*50 _031_
*51 _032_
*52 _033_
*53 _034_
*54 _035_
*55 _036_
*56 _037_
*57 _038_
*58 _039_
*59 _040_
*60 _041_
*61 _042_
*62 _043_
*63 _044_
*64 _045_
*65 _046_
*66 _047_
*67 _048_
*68 _049_
*69 _050_
*70 _051_
*71 _052_
*72 _053_
*73 _054_
*74 _055_
*75 _056_
*76 _057_
*77 _058_
*78 _059_
*79 _060_
*80 _061_
*81 _062_
*82 _063_
*83 _064_
*84 _065_
*85 _066_
*86 _067_
*87 _068_
*88 _069_
*89 _070_
*90 _071_
*91 _072_
*92 _073_
*93 _074_
*94 _075_
*95 _076_
*96 _077_
*97 _078_
*98 _079_
*99 _080_
*100 _081_
*101 _082_
*102 _083_
*103 _084_
*104 _085_
*105 _086_
*106 _087_
*107 _088_
*108 _089_
*109 _090_
*110 _091_
*111 _092_
*112 _093_
*113 _094_
*114 _095_
*115 _096_
*116 _097_
*117 _098_
*118 _099_
*119 _100_
*120 _101_
*121 _102_
*122 _103_
*123 _104_
*124 _105_
*125 _106_
*126 _107_
*127 _108_
*128 _109_
*129 _110_
*130 _111_
*131 _112_
*132 _113_
*133 _114_
*134 _115_
*135 _116_
*136 _117_
*137 _118_
*138 _119_
*139 _120_
*140 _121_
*141 _122_
*142 _123_
*143 _124_
*144 _125_
*145 _126_
*146 _127_
*147 _128_
*148 _129_
*149 _130_
*150 _131_
*151 _132_
*152 _133_
*153 _134_
*154 _135_
*155 _136_
*156 _137_
*157 _138_
*158 _139_
*159 _140_
*160 _141_
*161 _142_
*162 _143_
*163 _144_
*164 _145_
*165 _146_
*166 _147_
*167 _148_
*168 _149_
*169 _150_
*170 _151_
*171 _152_
*172 _153_
*173 _154_
*174 _155_
*175 _156_
*176 _157_
*177 _158_
*178 _159_
*179 _160_
*180 _161_
*181 _162_
*182 _163_
*183 _164_
*184 _165_
*185 _166_
*186 _167_
*187 _168_
*188 _169_
*189 _170_
*190 _171_
*191 _172_
*192 _173_
*193 _174_
*194 _175_
*195 _176_
*196 _177_
*197 _178_
*198 _179_
*199 _180_
*200 _181_
*201 _182_
*202 _183_
*203 _184_
*204 _185_
*205 _186_
*206 _187_
*207 _188_
*208 _189_
*209 _190_
*210 _191_
*211 _192_
*212 _193_
*213 _194_
*214 _195_
*215 _196_
*216 _197_
*217 _198_
*218 _199_
*219 _200_
*220 _201_
*221 _202_
*222 _203_
*223 _204_
*224 _205_
*225 _206_
*226 _207_
*227 _208_
*228 _209_
*229 _210_
*230 _211_
*231 _212_
*232 _213_
*233 _214_
*234 _215_
*235 _216_
*236 _217_
*237 _218_
*238 _219_
*239 _220_
*240 _221_
*241 _222_
*242 _223_
*243 _224_
*244 _225_
*245 _226_
*246 _227_
*247 _228_
*248 _229_
*249 _230_
*250 _231_
*251 _232_
*252 _233_
*253 _234_
*254 _235_
*255 _236_
*256 _237_
*257 _238_
*258 _239_
*259 _240_
*260 _241_
*261 _242_
*262 _243_
*263 _244_
*264 _245_
*265 _246_
*266 _247_
*267 _248_
*268 _249_
*269 _250_
*270 _251_
*271 _252_
*272 _253_
*273 _254_
*274 _255_
*275 _256_
*276 _257_
*277 _258_
*278 _259_
*279 _260_
*280 _261_
*281 _262_
*282 _263_
*283 _264_
*284 _265_
*285 _266_
*286 _267_
*287 _268_
*288 _269_
*289 _270_
*290 _271_
*291 _272_
*292 _273_
*293 _274_
*294 _275_
*295 _276_
*296 _277_
*297 _278_
*298 _279_
*299 _280_
*300 _281_
*301 _282_
*302 _283_
*303 _284_
*304 _285_
*305 _286_
*306 _287_
*307 _288_
*308 _289_
*309 _290_
*310 _291_
*311 _292_
*312 _293_
*313 _294_
*314 _295_
*315 _296_
*316 _297_
*317 _298_
*318 _299_
*319 _300_
*320 _301_
*321 _302_
*322 _303_
*323 _304_
*324 _305_
*325 _306_
*326 _307_
*327 _308_
*328 _309_
*329 _310_
*330 _311_
*331 _312_
*332 _313_
*333 _314_
*334 _315_
*335 _316_
*336 _317_
*337 _318_
*338 _319_
*339 _320_
*340 _321_
*341 _322_
*342 _323_
*343 _324_
*344 _325_
*345 _326_
*346 _327_
*347 _328_
*348 _329_
*349 _330_
*350 _331_
*351 _332_
*352 _333_
*353 _334_
*354 _335_
*355 _336_
*356 c_inc_on
*357 clknet_0_io_in[0]
*358 clknet_3_0__leaf_io_in[0]
*359 clknet_3_1__leaf_io_in[0]
*360 clknet_3_2__leaf_io_in[0]
*361 clknet_3_3__leaf_io_in[0]
*362 clknet_3_4__leaf_io_in[0]
*363 clknet_3_5__leaf_io_in[0]
*364 clknet_3_6__leaf_io_in[0]
*365 clknet_3_7__leaf_io_in[0]
*366 mbox\._zz_c_state_cnt\[0\]
*367 mbox\._zz_c_state_cnt\[1\]
*368 mbox\._zz_c_state_cnt\[2\]
*369 mbox\._zz_c_state_cnt\[3\]
*370 mbox\._zz_c_state_cnt\[4\]
*371 mbox\._zz_c_state_cnt\[5\]
*372 mbox\._zz_c_state_cnt\[6\]
*373 mbox\._zz_c_state_cnt\[7\]
*374 mbox\.c_fsm_blockAddress\[0\]
*375 mbox\.c_fsm_blockAddress\[1\]
*376 mbox\.c_fsm_blockAddress\[2\]
*377 mbox\.c_fsm_blockAddress\[3\]
*378 mbox\.c_fsm_inbox_storage\[0\]
*379 mbox\.c_fsm_inbox_storage\[12\]
*380 mbox\.c_fsm_inbox_storage\[13\]
*381 mbox\.c_fsm_inbox_storage\[14\]
*382 mbox\.c_fsm_inbox_storage\[15\]
*383 mbox\.c_fsm_inbox_storage\[16\]
*384 mbox\.c_fsm_inbox_storage\[17\]
*385 mbox\.c_fsm_inbox_storage\[18\]
*386 mbox\.c_fsm_inbox_storage\[19\]
*387 mbox\.c_fsm_inbox_storage\[1\]
*388 mbox\.c_fsm_inbox_storage\[2\]
*389 mbox\.c_fsm_inbox_storage\[3\]
*390 mbox\.c_fsm_outCyclesLeft\[0\]
*391 mbox\.c_fsm_outCyclesLeft\[1\]
*392 mbox\.c_fsm_outCyclesLeft\[2\]
*393 mbox\.c_fsm_outCyclesLeft\[3\]
*394 mbox\.c_fsm_outbox\[0\]
*395 mbox\.c_fsm_outbox\[10\]
*396 mbox\.c_fsm_outbox\[11\]
*397 mbox\.c_fsm_outbox\[12\]
*398 mbox\.c_fsm_outbox\[13\]
*399 mbox\.c_fsm_outbox\[14\]
*400 mbox\.c_fsm_outbox\[15\]
*401 mbox\.c_fsm_outbox\[16\]
*402 mbox\.c_fsm_outbox\[17\]
*403 mbox\.c_fsm_outbox\[18\]
*404 mbox\.c_fsm_outbox\[19\]
*405 mbox\.c_fsm_outbox\[1\]
*406 mbox\.c_fsm_outbox\[20\]
*407 mbox\.c_fsm_outbox\[21\]
*408 mbox\.c_fsm_outbox\[22\]
*409 mbox\.c_fsm_outbox\[23\]
*410 mbox\.c_fsm_outbox\[24\]
*411 mbox\.c_fsm_outbox\[25\]
*412 mbox\.c_fsm_outbox\[26\]
*413 mbox\.c_fsm_outbox\[27\]
*414 mbox\.c_fsm_outbox\[2\]
*415 mbox\.c_fsm_outbox\[3\]
*416 mbox\.c_fsm_outbox\[4\]
*417 mbox\.c_fsm_outbox\[5\]
*418 mbox\.c_fsm_outbox\[6\]
*419 mbox\.c_fsm_outbox\[7\]
*420 mbox\.c_fsm_outbox\[8\]
*421 mbox\.c_fsm_outbox\[9\]
*422 mbox\.c_fsm_stateReg\[0\]
*423 mbox\.c_fsm_stateReg\[1\]
*424 mbox\.c_state_cnt\[0\]
*425 mbox\.c_state_cnt\[1\]
*426 mbox\.c_state_cnt\[2\]
*427 mbox\.c_state_cnt\[3\]
*428 mbox\.c_state_cnt\[4\]
*429 mbox\.c_state_cnt\[5\]
*430 mbox\.c_state_cnt\[6\]
*431 mbox\.c_state_cnt\[7\]
*432 mbox\.ffSerDataDone\.q
*433 mbox\.ffSerDataDone\.q_out
*434 mbox\.ffSerDataIn\.q
*435 mbox\.ffSerDataIn\.q_out
*436 mbox\.ffSerDataPresent\.q
*437 mbox\.ffSerDataPresent\.q_out
*438 mbox\.io_outbox_payload\[10\]
*439 mbox\.io_outbox_payload\[11\]
*440 mbox\.io_outbox_payload\[12\]
*441 mbox\.io_outbox_payload\[13\]
*442 mbox\.io_outbox_payload\[14\]
*443 mbox\.io_outbox_payload\[15\]
*444 mbox\.io_outbox_payload\[16\]
*445 mbox\.io_outbox_payload\[17\]
*446 mbox\.io_outbox_payload\[18\]
*447 mbox\.io_outbox_payload\[19\]
*448 mbox\.io_outbox_payload\[4\]
*449 mbox\.io_outbox_payload\[5\]
*450 mbox\.io_outbox_payload\[6\]
*451 mbox\.io_outbox_payload\[7\]
*452 mbox\.io_outbox_payload\[8\]
*453 mbox\.io_outbox_payload\[9\]
*454 mbox\.resetArea_cnt\[0\]
*455 mbox\.resetArea_cnt\[1\]
*456 mbox\.resetArea_cnt\[2\]
*457 net1
*458 net2
*459 net3
*460 net4
*461 net5
*462 net6
*463 net7
*464 ANTENNA_1
*465 ANTENNA_10
*466 ANTENNA_11
*467 ANTENNA_12
*468 ANTENNA_13
*469 ANTENNA_14
*470 ANTENNA_15
*471 ANTENNA_16
*472 ANTENNA_17
*473 ANTENNA_18
*474 ANTENNA_19
*475 ANTENNA_2
*476 ANTENNA_20
*477 ANTENNA_3
*478 ANTENNA_4
*479 ANTENNA_5
*480 ANTENNA_6
*481 ANTENNA_7
*482 ANTENNA_8
*483 ANTENNA_9
*484 FILLER_0_103
*485 FILLER_0_107
*486 FILLER_0_111
*487 FILLER_0_113
*488 FILLER_0_131
*489 FILLER_0_139
*490 FILLER_0_141
*491 FILLER_0_153
*492 FILLER_0_165
*493 FILLER_0_169
*494 FILLER_0_181
*495 FILLER_0_193
*496 FILLER_0_197
*497 FILLER_0_209
*498 FILLER_0_221
*499 FILLER_0_225
*500 FILLER_0_237
*501 FILLER_0_249
*502 FILLER_0_253
*503 FILLER_0_26
*504 FILLER_0_265
*505 FILLER_0_277
*506 FILLER_0_281
*507 FILLER_0_29
*508 FILLER_0_293
*509 FILLER_0_3
*510 FILLER_0_51
*511 FILLER_0_55
*512 FILLER_0_57
*513 FILLER_0_75
*514 FILLER_0_83
*515 FILLER_0_85
*516 FILLER_0_9
*517 FILLER_10_103
*518 FILLER_10_115
*519 FILLER_10_127
*520 FILLER_10_139
*521 FILLER_10_141
*522 FILLER_10_155
*523 FILLER_10_167
*524 FILLER_10_179
*525 FILLER_10_191
*526 FILLER_10_195
*527 FILLER_10_197
*528 FILLER_10_209
*529 FILLER_10_221
*530 FILLER_10_233
*531 FILLER_10_245
*532 FILLER_10_251
*533 FILLER_10_253
*534 FILLER_10_26
*535 FILLER_10_265
*536 FILLER_10_277
*537 FILLER_10_289
*538 FILLER_10_29
*539 FILLER_10_297
*540 FILLER_10_3
*541 FILLER_10_48
*542 FILLER_10_60
*543 FILLER_10_8
*544 FILLER_10_82
*545 FILLER_10_85
*546 FILLER_11_107
*547 FILLER_11_111
*548 FILLER_11_113
*549 FILLER_11_125
*550 FILLER_11_137
*551 FILLER_11_149
*552 FILLER_11_159
*553 FILLER_11_167
*554 FILLER_11_169
*555 FILLER_11_181
*556 FILLER_11_193
*557 FILLER_11_205
*558 FILLER_11_217
*559 FILLER_11_223
*560 FILLER_11_225
*561 FILLER_11_23
*562 FILLER_11_237
*563 FILLER_11_249
*564 FILLER_11_261
*565 FILLER_11_27
*566 FILLER_11_273
*567 FILLER_11_279
*568 FILLER_11_281
*569 FILLER_11_293
*570 FILLER_11_3
*571 FILLER_11_47
*572 FILLER_11_55
*573 FILLER_11_57
*574 FILLER_11_69
*575 FILLER_11_91
*576 FILLER_12_103
*577 FILLER_12_115
*578 FILLER_12_127
*579 FILLER_12_139
*580 FILLER_12_141
*581 FILLER_12_147
*582 FILLER_12_155
*583 FILLER_12_164
*584 FILLER_12_175
*585 FILLER_12_187
*586 FILLER_12_195
*587 FILLER_12_197
*588 FILLER_12_209
*589 FILLER_12_221
*590 FILLER_12_233
*591 FILLER_12_245
*592 FILLER_12_251
*593 FILLER_12_253
*594 FILLER_12_26
*595 FILLER_12_265
*596 FILLER_12_277
*597 FILLER_12_289
*598 FILLER_12_29
*599 FILLER_12_297
*600 FILLER_12_3
*601 FILLER_12_34
*602 FILLER_12_42
*603 FILLER_12_60
*604 FILLER_12_80
*605 FILLER_12_85
*606 FILLER_12_9
*607 FILLER_13_105
*608 FILLER_13_111
*609 FILLER_13_113
*610 FILLER_13_125
*611 FILLER_13_137
*612 FILLER_13_149
*613 FILLER_13_161
*614 FILLER_13_167
*615 FILLER_13_169
*616 FILLER_13_181
*617 FILLER_13_193
*618 FILLER_13_205
*619 FILLER_13_217
*620 FILLER_13_223
*621 FILLER_13_225
*622 FILLER_13_237
*623 FILLER_13_24
*624 FILLER_13_249
*625 FILLER_13_261
*626 FILLER_13_273
*627 FILLER_13_279
*628 FILLER_13_281
*629 FILLER_13_293
*630 FILLER_13_3
*631 FILLER_13_36
*632 FILLER_13_54
*633 FILLER_13_57
*634 FILLER_13_65
*635 FILLER_13_83
*636 FILLER_13_87
*637 FILLER_14_106
*638 FILLER_14_118
*639 FILLER_14_130
*640 FILLER_14_138
*641 FILLER_14_141
*642 FILLER_14_146
*643 FILLER_14_158
*644 FILLER_14_165
*645 FILLER_14_173
*646 FILLER_14_185
*647 FILLER_14_193
*648 FILLER_14_197
*649 FILLER_14_209
*650 FILLER_14_221
*651 FILLER_14_233
*652 FILLER_14_245
*653 FILLER_14_251
*654 FILLER_14_253
*655 FILLER_14_26
*656 FILLER_14_265
*657 FILLER_14_277
*658 FILLER_14_289
*659 FILLER_14_29
*660 FILLER_14_297
*661 FILLER_14_3
*662 FILLER_14_41
*663 FILLER_14_69
*664 FILLER_14_81
*665 FILLER_14_85
*666 FILLER_14_9
*667 FILLER_14_94
*668 FILLER_15_102
*669 FILLER_15_110
*670 FILLER_15_113
*671 FILLER_15_125
*672 FILLER_15_137
*673 FILLER_15_141
*674 FILLER_15_146
*675 FILLER_15_158
*676 FILLER_15_166
*677 FILLER_15_169
*678 FILLER_15_181
*679 FILLER_15_193
*680 FILLER_15_205
*681 FILLER_15_217
*682 FILLER_15_22
*683 FILLER_15_223
*684 FILLER_15_225
*685 FILLER_15_237
*686 FILLER_15_249
*687 FILLER_15_26
*688 FILLER_15_261
*689 FILLER_15_273
*690 FILLER_15_279
*691 FILLER_15_281
*692 FILLER_15_293
*693 FILLER_15_3
*694 FILLER_15_54
*695 FILLER_15_57
*696 FILLER_15_69
*697 FILLER_15_90
*698 FILLER_16_103
*699 FILLER_16_115
*700 FILLER_16_127
*701 FILLER_16_139
*702 FILLER_16_141
*703 FILLER_16_153
*704 FILLER_16_165
*705 FILLER_16_177
*706 FILLER_16_189
*707 FILLER_16_195
*708 FILLER_16_197
*709 FILLER_16_209
*710 FILLER_16_221
*711 FILLER_16_233
*712 FILLER_16_245
*713 FILLER_16_251
*714 FILLER_16_253
*715 FILLER_16_26
*716 FILLER_16_265
*717 FILLER_16_277
*718 FILLER_16_289
*719 FILLER_16_29
*720 FILLER_16_297
*721 FILLER_16_3
*722 FILLER_16_34
*723 FILLER_16_42
*724 FILLER_16_65
*725 FILLER_16_77
*726 FILLER_16_8
*727 FILLER_16_83
*728 FILLER_16_85
*729 FILLER_17_102
*730 FILLER_17_110
*731 FILLER_17_113
*732 FILLER_17_12
*733 FILLER_17_125
*734 FILLER_17_137
*735 FILLER_17_149
*736 FILLER_17_161
*737 FILLER_17_167
*738 FILLER_17_169
*739 FILLER_17_181
*740 FILLER_17_193
*741 FILLER_17_205
*742 FILLER_17_217
*743 FILLER_17_223
*744 FILLER_17_225
*745 FILLER_17_237
*746 FILLER_17_249
*747 FILLER_17_261
*748 FILLER_17_273
*749 FILLER_17_279
*750 FILLER_17_281
*751 FILLER_17_293
*752 FILLER_17_3
*753 FILLER_17_36
*754 FILLER_17_48
*755 FILLER_17_57
*756 FILLER_17_69
*757 FILLER_17_72
*758 FILLER_17_90
*759 FILLER_18_109
*760 FILLER_18_121
*761 FILLER_18_129
*762 FILLER_18_138
*763 FILLER_18_141
*764 FILLER_18_153
*765 FILLER_18_165
*766 FILLER_18_177
*767 FILLER_18_189
*768 FILLER_18_195
*769 FILLER_18_197
*770 FILLER_18_206
*771 FILLER_18_218
*772 FILLER_18_230
*773 FILLER_18_242
*774 FILLER_18_250
*775 FILLER_18_253
*776 FILLER_18_26
*777 FILLER_18_265
*778 FILLER_18_277
*779 FILLER_18_289
*780 FILLER_18_29
*781 FILLER_18_297
*782 FILLER_18_3
*783 FILLER_18_37
*784 FILLER_18_54
*785 FILLER_18_58
*786 FILLER_18_75
*787 FILLER_18_83
*788 FILLER_18_85
*789 FILLER_18_9
*790 FILLER_18_97
*791 FILLER_19_100
*792 FILLER_19_113
*793 FILLER_19_118
*794 FILLER_19_130
*795 FILLER_19_14
*796 FILLER_19_142
*797 FILLER_19_154
*798 FILLER_19_166
*799 FILLER_19_169
*800 FILLER_19_181
*801 FILLER_19_193
*802 FILLER_19_205
*803 FILLER_19_217
*804 FILLER_19_223
*805 FILLER_19_225
*806 FILLER_19_237
*807 FILLER_19_249
*808 FILLER_19_261
*809 FILLER_19_273
*810 FILLER_19_279
*811 FILLER_19_281
*812 FILLER_19_293
*813 FILLER_19_3
*814 FILLER_19_33
*815 FILLER_19_54
*816 FILLER_19_57
*817 FILLER_19_76
*818 FILLER_19_8
*819 FILLER_19_88
*820 FILLER_1_104
*821 FILLER_1_113
*822 FILLER_1_131
*823 FILLER_1_143
*824 FILLER_1_155
*825 FILLER_1_167
*826 FILLER_1_169
*827 FILLER_1_178
*828 FILLER_1_190
*829 FILLER_1_202
*830 FILLER_1_214
*831 FILLER_1_222
*832 FILLER_1_225
*833 FILLER_1_237
*834 FILLER_1_249
*835 FILLER_1_26
*836 FILLER_1_261
*837 FILLER_1_273
*838 FILLER_1_279
*839 FILLER_1_281
*840 FILLER_1_293
*841 FILLER_1_3
*842 FILLER_1_34
*843 FILLER_1_52
*844 FILLER_1_57
*845 FILLER_1_75
*846 FILLER_1_9
*847 FILLER_1_95
*848 FILLER_20_101
*849 FILLER_20_112
*850 FILLER_20_124
*851 FILLER_20_135
*852 FILLER_20_139
*853 FILLER_20_141
*854 FILLER_20_153
*855 FILLER_20_165
*856 FILLER_20_177
*857 FILLER_20_189
*858 FILLER_20_195
*859 FILLER_20_197
*860 FILLER_20_209
*861 FILLER_20_221
*862 FILLER_20_228
*863 FILLER_20_240
*864 FILLER_20_253
*865 FILLER_20_26
*866 FILLER_20_265
*867 FILLER_20_277
*868 FILLER_20_289
*869 FILLER_20_29
*870 FILLER_20_297
*871 FILLER_20_3
*872 FILLER_20_48
*873 FILLER_20_52
*874 FILLER_20_64
*875 FILLER_20_8
*876 FILLER_20_82
*877 FILLER_20_85
*878 FILLER_20_93
*879 FILLER_21_104
*880 FILLER_21_113
*881 FILLER_21_123
*882 FILLER_21_135
*883 FILLER_21_147
*884 FILLER_21_15
*885 FILLER_21_155
*886 FILLER_21_165
*887 FILLER_21_169
*888 FILLER_21_181
*889 FILLER_21_193
*890 FILLER_21_205
*891 FILLER_21_211
*892 FILLER_21_215
*893 FILLER_21_223
*894 FILLER_21_225
*895 FILLER_21_237
*896 FILLER_21_249
*897 FILLER_21_261
*898 FILLER_21_273
*899 FILLER_21_279
*900 FILLER_21_281
*901 FILLER_21_293
*902 FILLER_21_3
*903 FILLER_21_36
*904 FILLER_21_48
*905 FILLER_21_57
*906 FILLER_21_76
*907 FILLER_21_88
*908 FILLER_22_109
*909 FILLER_22_113
*910 FILLER_22_122
*911 FILLER_22_134
*912 FILLER_22_141
*913 FILLER_22_153
*914 FILLER_22_165
*915 FILLER_22_177
*916 FILLER_22_189
*917 FILLER_22_195
*918 FILLER_22_197
*919 FILLER_22_209
*920 FILLER_22_221
*921 FILLER_22_233
*922 FILLER_22_245
*923 FILLER_22_251
*924 FILLER_22_253
*925 FILLER_22_26
*926 FILLER_22_265
*927 FILLER_22_277
*928 FILLER_22_289
*929 FILLER_22_29
*930 FILLER_22_297
*931 FILLER_22_3
*932 FILLER_22_41
*933 FILLER_22_65
*934 FILLER_22_77
*935 FILLER_22_83
*936 FILLER_22_85
*937 FILLER_22_9
*938 FILLER_22_97
*939 FILLER_23_105
*940 FILLER_23_111
*941 FILLER_23_113
*942 FILLER_23_125
*943 FILLER_23_137
*944 FILLER_23_153
*945 FILLER_23_166
*946 FILLER_23_169
*947 FILLER_23_181
*948 FILLER_23_193
*949 FILLER_23_205
*950 FILLER_23_22
*951 FILLER_23_222
*952 FILLER_23_225
*953 FILLER_23_237
*954 FILLER_23_245
*955 FILLER_23_257
*956 FILLER_23_26
*957 FILLER_23_269
*958 FILLER_23_277
*959 FILLER_23_281
*960 FILLER_23_293
*961 FILLER_23_3
*962 FILLER_23_34
*963 FILLER_23_52
*964 FILLER_23_57
*965 FILLER_23_81
*966 FILLER_23_93
*967 FILLER_24_109
*968 FILLER_24_117
*969 FILLER_24_122
*970 FILLER_24_130
*971 FILLER_24_136
*972 FILLER_24_141
*973 FILLER_24_148
*974 FILLER_24_157
*975 FILLER_24_165
*976 FILLER_24_174
*977 FILLER_24_186
*978 FILLER_24_194
*979 FILLER_24_197
*980 FILLER_24_209
*981 FILLER_24_221
*982 FILLER_24_233
*983 FILLER_24_245
*984 FILLER_24_251
*985 FILLER_24_253
*986 FILLER_24_26
*987 FILLER_24_265
*988 FILLER_24_277
*989 FILLER_24_289
*990 FILLER_24_29
*991 FILLER_24_297
*992 FILLER_24_3
*993 FILLER_24_34
*994 FILLER_24_38
*995 FILLER_24_55
*996 FILLER_24_75
*997 FILLER_24_83
*998 FILLER_24_85
*999 FILLER_24_9
*1000 FILLER_24_97
*1001 FILLER_25_109
*1002 FILLER_25_113
*1003 FILLER_25_120
*1004 FILLER_25_126
*1005 FILLER_25_135
*1006 FILLER_25_144
*1007 FILLER_25_156
*1008 FILLER_25_169
*1009 FILLER_25_181
*1010 FILLER_25_193
*1011 FILLER_25_205
*1012 FILLER_25_217
*1013 FILLER_25_223
*1014 FILLER_25_225
*1015 FILLER_25_237
*1016 FILLER_25_249
*1017 FILLER_25_261
*1018 FILLER_25_273
*1019 FILLER_25_279
*1020 FILLER_25_28
*1021 FILLER_25_281
*1022 FILLER_25_293
*1023 FILLER_25_3
*1024 FILLER_25_36
*1025 FILLER_25_54
*1026 FILLER_25_57
*1027 FILLER_25_69
*1028 FILLER_25_87
*1029 FILLER_25_99
*1030 FILLER_26_103
*1031 FILLER_26_115
*1032 FILLER_26_121
*1033 FILLER_26_133
*1034 FILLER_26_139
*1035 FILLER_26_141
*1036 FILLER_26_149
*1037 FILLER_26_161
*1038 FILLER_26_169
*1039 FILLER_26_181
*1040 FILLER_26_193
*1041 FILLER_26_197
*1042 FILLER_26_209
*1043 FILLER_26_221
*1044 FILLER_26_233
*1045 FILLER_26_245
*1046 FILLER_26_25
*1047 FILLER_26_251
*1048 FILLER_26_253
*1049 FILLER_26_265
*1050 FILLER_26_277
*1051 FILLER_26_289
*1052 FILLER_26_29
*1053 FILLER_26_297
*1054 FILLER_26_3
*1055 FILLER_26_41
*1056 FILLER_26_59
*1057 FILLER_26_7
*1058 FILLER_26_79
*1059 FILLER_26_83
*1060 FILLER_26_85
*1061 FILLER_27_106
*1062 FILLER_27_113
*1063 FILLER_27_123
*1064 FILLER_27_134
*1065 FILLER_27_14
*1066 FILLER_27_146
*1067 FILLER_27_158
*1068 FILLER_27_166
*1069 FILLER_27_169
*1070 FILLER_27_181
*1071 FILLER_27_193
*1072 FILLER_27_205
*1073 FILLER_27_213
*1074 FILLER_27_222
*1075 FILLER_27_225
*1076 FILLER_27_237
*1077 FILLER_27_249
*1078 FILLER_27_261
*1079 FILLER_27_273
*1080 FILLER_27_279
*1081 FILLER_27_281
*1082 FILLER_27_293
*1083 FILLER_27_3
*1084 FILLER_27_34
*1085 FILLER_27_54
*1086 FILLER_27_57
*1087 FILLER_27_65
*1088 FILLER_27_82
*1089 FILLER_27_94
*1090 FILLER_28_106
*1091 FILLER_28_126
*1092 FILLER_28_138
*1093 FILLER_28_141
*1094 FILLER_28_153
*1095 FILLER_28_159
*1096 FILLER_28_168
*1097 FILLER_28_180
*1098 FILLER_28_192
*1099 FILLER_28_197
*1100 FILLER_28_205
*1101 FILLER_28_21
*1102 FILLER_28_213
*1103 FILLER_28_225
*1104 FILLER_28_236
*1105 FILLER_28_248
*1106 FILLER_28_253
*1107 FILLER_28_265
*1108 FILLER_28_27
*1109 FILLER_28_277
*1110 FILLER_28_289
*1111 FILLER_28_29
*1112 FILLER_28_297
*1113 FILLER_28_3
*1114 FILLER_28_48
*1115 FILLER_28_52
*1116 FILLER_28_64
*1117 FILLER_28_76
*1118 FILLER_28_85
*1119 FILLER_29_105
*1120 FILLER_29_111
*1121 FILLER_29_113
*1122 FILLER_29_12
*1123 FILLER_29_120
*1124 FILLER_29_132
*1125 FILLER_29_144
*1126 FILLER_29_156
*1127 FILLER_29_166
*1128 FILLER_29_169
*1129 FILLER_29_181
*1130 FILLER_29_19
*1131 FILLER_29_193
*1132 FILLER_29_205
*1133 FILLER_29_209
*1134 FILLER_29_218
*1135 FILLER_29_225
*1136 FILLER_29_232
*1137 FILLER_29_244
*1138 FILLER_29_256
*1139 FILLER_29_268
*1140 FILLER_29_27
*1141 FILLER_29_281
*1142 FILLER_29_293
*1143 FILLER_29_3
*1144 FILLER_29_30
*1145 FILLER_29_48
*1146 FILLER_29_57
*1147 FILLER_29_69
*1148 FILLER_29_81
*1149 FILLER_29_93
*1150 FILLER_2_103
*1151 FILLER_2_123
*1152 FILLER_2_135
*1153 FILLER_2_139
*1154 FILLER_2_141
*1155 FILLER_2_153
*1156 FILLER_2_165
*1157 FILLER_2_177
*1158 FILLER_2_189
*1159 FILLER_2_195
*1160 FILLER_2_197
*1161 FILLER_2_209
*1162 FILLER_2_22
*1163 FILLER_2_221
*1164 FILLER_2_233
*1165 FILLER_2_245
*1166 FILLER_2_251
*1167 FILLER_2_253
*1168 FILLER_2_265
*1169 FILLER_2_277
*1170 FILLER_2_289
*1171 FILLER_2_29
*1172 FILLER_2_297
*1173 FILLER_2_3
*1174 FILLER_2_41
*1175 FILLER_2_65
*1176 FILLER_2_77
*1177 FILLER_2_83
*1178 FILLER_2_85
*1179 FILLER_30_10
*1180 FILLER_30_101
*1181 FILLER_30_113
*1182 FILLER_30_117
*1183 FILLER_30_123
*1184 FILLER_30_135
*1185 FILLER_30_139
*1186 FILLER_30_141
*1187 FILLER_30_153
*1188 FILLER_30_165
*1189 FILLER_30_17
*1190 FILLER_30_173
*1191 FILLER_30_179
*1192 FILLER_30_191
*1193 FILLER_30_195
*1194 FILLER_30_197
*1195 FILLER_30_201
*1196 FILLER_30_207
*1197 FILLER_30_219
*1198 FILLER_30_231
*1199 FILLER_30_243
*1200 FILLER_30_251
*1201 FILLER_30_253
*1202 FILLER_30_26
*1203 FILLER_30_265
*1204 FILLER_30_277
*1205 FILLER_30_289
*1206 FILLER_30_29
*1207 FILLER_30_297
*1208 FILLER_30_3
*1209 FILLER_30_38
*1210 FILLER_30_45
*1211 FILLER_30_58
*1212 FILLER_30_67
*1213 FILLER_30_71
*1214 FILLER_30_75
*1215 FILLER_30_83
*1216 FILLER_30_85
*1217 FILLER_31_10
*1218 FILLER_31_102
*1219 FILLER_31_110
*1220 FILLER_31_113
*1221 FILLER_31_126
*1222 FILLER_31_138
*1223 FILLER_31_14
*1224 FILLER_31_150
*1225 FILLER_31_163
*1226 FILLER_31_167
*1227 FILLER_31_169
*1228 FILLER_31_179
*1229 FILLER_31_18
*1230 FILLER_31_191
*1231 FILLER_31_203
*1232 FILLER_31_214
*1233 FILLER_31_222
*1234 FILLER_31_225
*1235 FILLER_31_237
*1236 FILLER_31_249
*1237 FILLER_31_261
*1238 FILLER_31_273
*1239 FILLER_31_279
*1240 FILLER_31_281
*1241 FILLER_31_293
*1242 FILLER_31_3
*1243 FILLER_31_30
*1244 FILLER_31_38
*1245 FILLER_31_47
*1246 FILLER_31_54
*1247 FILLER_31_57
*1248 FILLER_31_66
*1249 FILLER_31_81
*1250 FILLER_31_91
*1251 FILLER_31_98
*1252 FILLER_32_102
*1253 FILLER_32_111
*1254 FILLER_32_119
*1255 FILLER_32_126
*1256 FILLER_32_138
*1257 FILLER_32_141
*1258 FILLER_32_153
*1259 FILLER_32_165
*1260 FILLER_32_177
*1261 FILLER_32_189
*1262 FILLER_32_19
*1263 FILLER_32_195
*1264 FILLER_32_197
*1265 FILLER_32_209
*1266 FILLER_32_221
*1267 FILLER_32_229
*1268 FILLER_32_235
*1269 FILLER_32_243
*1270 FILLER_32_250
*1271 FILLER_32_253
*1272 FILLER_32_26
*1273 FILLER_32_261
*1274 FILLER_32_272
*1275 FILLER_32_284
*1276 FILLER_32_29
*1277 FILLER_32_296
*1278 FILLER_32_3
*1279 FILLER_32_37
*1280 FILLER_32_41
*1281 FILLER_32_46
*1282 FILLER_32_56
*1283 FILLER_32_8
*1284 FILLER_32_82
*1285 FILLER_32_85
*1286 FILLER_32_93
*1287 FILLER_33_110
*1288 FILLER_33_113
*1289 FILLER_33_127
*1290 FILLER_33_134
*1291 FILLER_33_146
*1292 FILLER_33_158
*1293 FILLER_33_166
*1294 FILLER_33_169
*1295 FILLER_33_18
*1296 FILLER_33_181
*1297 FILLER_33_191
*1298 FILLER_33_203
*1299 FILLER_33_215
*1300 FILLER_33_223
*1301 FILLER_33_225
*1302 FILLER_33_237
*1303 FILLER_33_25
*1304 FILLER_33_250
*1305 FILLER_33_262
*1306 FILLER_33_274
*1307 FILLER_33_281
*1308 FILLER_33_293
*1309 FILLER_33_3
*1310 FILLER_33_35
*1311 FILLER_33_47
*1312 FILLER_33_54
*1313 FILLER_33_57
*1314 FILLER_33_66
*1315 FILLER_33_83
*1316 FILLER_33_97
*1317 FILLER_34_106
*1318 FILLER_34_116
*1319 FILLER_34_12
*1320 FILLER_34_128
*1321 FILLER_34_141
*1322 FILLER_34_153
*1323 FILLER_34_159
*1324 FILLER_34_163
*1325 FILLER_34_169
*1326 FILLER_34_180
*1327 FILLER_34_192
*1328 FILLER_34_197
*1329 FILLER_34_209
*1330 FILLER_34_221
*1331 FILLER_34_233
*1332 FILLER_34_245
*1333 FILLER_34_251
*1334 FILLER_34_253
*1335 FILLER_34_26
*1336 FILLER_34_265
*1337 FILLER_34_277
*1338 FILLER_34_289
*1339 FILLER_34_29
*1340 FILLER_34_297
*1341 FILLER_34_3
*1342 FILLER_34_40
*1343 FILLER_34_52
*1344 FILLER_34_62
*1345 FILLER_34_73
*1346 FILLER_34_82
*1347 FILLER_34_85
*1348 FILLER_34_96
*1349 FILLER_35_100
*1350 FILLER_35_110
*1351 FILLER_35_113
*1352 FILLER_35_125
*1353 FILLER_35_130
*1354 FILLER_35_139
*1355 FILLER_35_14
*1356 FILLER_35_148
*1357 FILLER_35_160
*1358 FILLER_35_169
*1359 FILLER_35_180
*1360 FILLER_35_192
*1361 FILLER_35_204
*1362 FILLER_35_216
*1363 FILLER_35_22
*1364 FILLER_35_225
*1365 FILLER_35_237
*1366 FILLER_35_249
*1367 FILLER_35_261
*1368 FILLER_35_272
*1369 FILLER_35_281
*1370 FILLER_35_293
*1371 FILLER_35_3
*1372 FILLER_35_31
*1373 FILLER_35_39
*1374 FILLER_35_51
*1375 FILLER_35_55
*1376 FILLER_35_57
*1377 FILLER_35_65
*1378 FILLER_35_73
*1379 FILLER_35_84
*1380 FILLER_35_92
*1381 FILLER_36_104
*1382 FILLER_36_116
*1383 FILLER_36_129
*1384 FILLER_36_13
*1385 FILLER_36_137
*1386 FILLER_36_141
*1387 FILLER_36_153
*1388 FILLER_36_165
*1389 FILLER_36_177
*1390 FILLER_36_189
*1391 FILLER_36_195
*1392 FILLER_36_197
*1393 FILLER_36_209
*1394 FILLER_36_221
*1395 FILLER_36_233
*1396 FILLER_36_245
*1397 FILLER_36_251
*1398 FILLER_36_253
*1399 FILLER_36_26
*1400 FILLER_36_265
*1401 FILLER_36_277
*1402 FILLER_36_289
*1403 FILLER_36_29
*1404 FILLER_36_297
*1405 FILLER_36_3
*1406 FILLER_36_34
*1407 FILLER_36_38
*1408 FILLER_36_46
*1409 FILLER_36_55
*1410 FILLER_36_67
*1411 FILLER_36_76
*1412 FILLER_36_85
*1413 FILLER_36_96
*1414 FILLER_37_100
*1415 FILLER_37_11
*1416 FILLER_37_113
*1417 FILLER_37_125
*1418 FILLER_37_137
*1419 FILLER_37_149
*1420 FILLER_37_166
*1421 FILLER_37_169
*1422 FILLER_37_18
*1423 FILLER_37_186
*1424 FILLER_37_194
*1425 FILLER_37_200
*1426 FILLER_37_212
*1427 FILLER_37_22
*1428 FILLER_37_225
*1429 FILLER_37_237
*1430 FILLER_37_249
*1431 FILLER_37_256
*1432 FILLER_37_268
*1433 FILLER_37_281
*1434 FILLER_37_293
*1435 FILLER_37_3
*1436 FILLER_37_30
*1437 FILLER_37_38
*1438 FILLER_37_47
*1439 FILLER_37_55
*1440 FILLER_37_57
*1441 FILLER_37_68
*1442 FILLER_37_77
*1443 FILLER_37_85
*1444 FILLER_37_92
*1445 FILLER_38_101
*1446 FILLER_38_107
*1447 FILLER_38_119
*1448 FILLER_38_13
*1449 FILLER_38_131
*1450 FILLER_38_139
*1451 FILLER_38_141
*1452 FILLER_38_149
*1453 FILLER_38_155
*1454 FILLER_38_163
*1455 FILLER_38_169
*1456 FILLER_38_177
*1457 FILLER_38_183
*1458 FILLER_38_195
*1459 FILLER_38_197
*1460 FILLER_38_215
*1461 FILLER_38_227
*1462 FILLER_38_239
*1463 FILLER_38_251
*1464 FILLER_38_253
*1465 FILLER_38_26
*1466 FILLER_38_265
*1467 FILLER_38_277
*1468 FILLER_38_289
*1469 FILLER_38_29
*1470 FILLER_38_297
*1471 FILLER_38_3
*1472 FILLER_38_45
*1473 FILLER_38_51
*1474 FILLER_38_57
*1475 FILLER_38_67
*1476 FILLER_38_75
*1477 FILLER_38_82
*1478 FILLER_38_85
*1479 FILLER_38_93
*1480 FILLER_39_101
*1481 FILLER_39_109
*1482 FILLER_39_113
*1483 FILLER_39_120
*1484 FILLER_39_128
*1485 FILLER_39_140
*1486 FILLER_39_152
*1487 FILLER_39_161
*1488 FILLER_39_167
*1489 FILLER_39_169
*1490 FILLER_39_176
*1491 FILLER_39_18
*1492 FILLER_39_180
*1493 FILLER_39_188
*1494 FILLER_39_200
*1495 FILLER_39_213
*1496 FILLER_39_221
*1497 FILLER_39_225
*1498 FILLER_39_237
*1499 FILLER_39_249
*1500 FILLER_39_261
*1501 FILLER_39_273
*1502 FILLER_39_279
*1503 FILLER_39_28
*1504 FILLER_39_281
*1505 FILLER_39_293
*1506 FILLER_39_3
*1507 FILLER_39_38
*1508 FILLER_39_54
*1509 FILLER_39_57
*1510 FILLER_39_80
*1511 FILLER_39_88
*1512 FILLER_39_9
*1513 FILLER_39_93
*1514 FILLER_3_108
*1515 FILLER_3_113
*1516 FILLER_3_122
*1517 FILLER_3_134
*1518 FILLER_3_146
*1519 FILLER_3_15
*1520 FILLER_3_161
*1521 FILLER_3_167
*1522 FILLER_3_169
*1523 FILLER_3_181
*1524 FILLER_3_193
*1525 FILLER_3_205
*1526 FILLER_3_217
*1527 FILLER_3_223
*1528 FILLER_3_225
*1529 FILLER_3_237
*1530 FILLER_3_249
*1531 FILLER_3_261
*1532 FILLER_3_273
*1533 FILLER_3_279
*1534 FILLER_3_281
*1535 FILLER_3_293
*1536 FILLER_3_3
*1537 FILLER_3_36
*1538 FILLER_3_48
*1539 FILLER_3_57
*1540 FILLER_3_69
*1541 FILLER_3_88
*1542 FILLER_40_100
*1543 FILLER_40_112
*1544 FILLER_40_123
*1545 FILLER_40_13
*1546 FILLER_40_135
*1547 FILLER_40_139
*1548 FILLER_40_141
*1549 FILLER_40_153
*1550 FILLER_40_165
*1551 FILLER_40_177
*1552 FILLER_40_189
*1553 FILLER_40_195
*1554 FILLER_40_197
*1555 FILLER_40_209
*1556 FILLER_40_221
*1557 FILLER_40_23
*1558 FILLER_40_233
*1559 FILLER_40_245
*1560 FILLER_40_251
*1561 FILLER_40_253
*1562 FILLER_40_259
*1563 FILLER_40_27
*1564 FILLER_40_271
*1565 FILLER_40_283
*1566 FILLER_40_29
*1567 FILLER_40_295
*1568 FILLER_40_3
*1569 FILLER_40_37
*1570 FILLER_40_49
*1571 FILLER_40_57
*1572 FILLER_40_63
*1573 FILLER_40_72
*1574 FILLER_40_76
*1575 FILLER_40_81
*1576 FILLER_40_85
*1577 FILLER_40_91
*1578 FILLER_41_103
*1579 FILLER_41_111
*1580 FILLER_41_113
*1581 FILLER_41_121
*1582 FILLER_41_129
*1583 FILLER_41_141
*1584 FILLER_41_153
*1585 FILLER_41_16
*1586 FILLER_41_164
*1587 FILLER_41_169
*1588 FILLER_41_181
*1589 FILLER_41_193
*1590 FILLER_41_205
*1591 FILLER_41_217
*1592 FILLER_41_223
*1593 FILLER_41_225
*1594 FILLER_41_237
*1595 FILLER_41_24
*1596 FILLER_41_249
*1597 FILLER_41_261
*1598 FILLER_41_273
*1599 FILLER_41_279
*1600 FILLER_41_281
*1601 FILLER_41_293
*1602 FILLER_41_3
*1603 FILLER_41_34
*1604 FILLER_41_43
*1605 FILLER_41_54
*1606 FILLER_41_57
*1607 FILLER_41_67
*1608 FILLER_41_7
*1609 FILLER_41_75
*1610 FILLER_41_84
*1611 FILLER_41_96
*1612 FILLER_42_100
*1613 FILLER_42_104
*1614 FILLER_42_112
*1615 FILLER_42_12
*1616 FILLER_42_124
*1617 FILLER_42_135
*1618 FILLER_42_139
*1619 FILLER_42_141
*1620 FILLER_42_153
*1621 FILLER_42_161
*1622 FILLER_42_173
*1623 FILLER_42_185
*1624 FILLER_42_193
*1625 FILLER_42_197
*1626 FILLER_42_209
*1627 FILLER_42_221
*1628 FILLER_42_233
*1629 FILLER_42_24
*1630 FILLER_42_245
*1631 FILLER_42_251
*1632 FILLER_42_253
*1633 FILLER_42_265
*1634 FILLER_42_277
*1635 FILLER_42_289
*1636 FILLER_42_29
*1637 FILLER_42_297
*1638 FILLER_42_3
*1639 FILLER_42_34
*1640 FILLER_42_47
*1641 FILLER_42_55
*1642 FILLER_42_67
*1643 FILLER_42_73
*1644 FILLER_42_78
*1645 FILLER_42_85
*1646 FILLER_42_92
*1647 FILLER_43_110
*1648 FILLER_43_113
*1649 FILLER_43_121