*SPEF "ieee 1481-1999"
*DESIGN "diferential_muxpga"
*DATE "11:11:11 Fri 11 11, 1111"
*VENDOR "OpenRCX"
*PROGRAM "Parallel Extraction"
*VERSION "1.0"
*DESIGN_FLOW "NAME_SCOPE LOCAL" "PIN_CAP NONE"
*DIVIDER /
*DELIMITER :
*BUS_DELIMITER []
*T_UNIT 1 NS
*C_UNIT 1 PF
*R_UNIT 1 OHM
*L_UNIT 1 HENRY

*NAME_MAP
*1 io_in[0]
*2 io_in[1]
*3 io_in[2]
*4 io_in[3]
*5 io_in[4]
*6 io_in[5]
*7 io_in[6]
*8 io_in[7]
*9 io_out[0]
*10 io_out[1]
*11 io_out[2]
*12 io_out[3]
*13 io_out[4]
*14 io_out[5]
*15 io_out[6]
*16 io_out[7]
*19 _000_
*20 _001_
*21 _002_
*22 _003_
*23 _004_
*24 _005_
*25 _006_
*26 _007_
*27 _008_
*28 _009_
*29 _010_
*30 _011_
*31 _012_
*32 _013_
*33 _014_
*34 _015_
*35 _016_
*36 _017_
*37 _018_
*38 _019_
*39 _020_
*40 _021_
*41 _022_
*42 _023_
*43 _024_
*44 _025_
*45 _026_
*46 _027_
*47 _028_
*48 _029_
*49 _030_
*50 _031_
*51 _032_
*52 _033_
*53 _034_
*54 _035_
*55 _036_
*56 _037_
*57 _038_
*58 _039_
*59 _040_
*60 _041_
*61 _042_
*62 _043_
*63 _044_
*64 _045_
*65 _046_
*66 _047_
*67 _048_
*68 _049_
*69 _050_
*70 _051_
*71 _052_
*72 _053_
*73 _054_
*74 _055_
*75 _056_
*76 _057_
*77 _058_
*78 _059_
*79 _060_
*80 _061_
*81 _062_
*82 _063_
*83 _064_
*84 _065_
*85 _066_
*86 _067_
*87 _068_
*88 _069_
*89 _070_
*90 _071_
*91 _072_
*92 _073_
*93 _074_
*94 _075_
*95 _076_
*96 _077_
*97 _078_
*98 _079_
*99 _080_
*100 _081_
*101 _082_
*102 _083_
*103 _084_
*104 _085_
*105 _086_
*106 _087_
*107 _088_
*108 _089_
*109 _090_
*110 _091_
*111 _092_
*112 _093_
*113 _094_
*114 _095_
*115 _096_
*116 _097_
*117 _098_
*118 _099_
*119 _100_
*120 _101_
*121 _102_
*122 _103_
*123 _104_
*124 _105_
*125 _106_
*126 _107_
*127 _108_
*128 _109_
*129 _110_
*130 _111_
*131 _112_
*132 _113_
*133 _114_
*134 _115_
*135 _116_
*136 _117_
*137 _118_
*138 _119_
*139 _120_
*140 _121_
*141 _122_
*142 _123_
*143 _124_
*144 _125_
*145 _126_
*146 _127_
*147 _128_
*148 _129_
*149 _130_
*150 _131_
*151 _132_
*152 _133_
*153 _134_
*154 _135_
*155 _136_
*156 _137_
*157 _138_
*158 _139_
*159 _140_
*160 _141_
*161 _142_
*162 _143_
*163 _144_
*164 _145_
*165 _146_
*166 _147_
*167 _148_
*168 _149_
*169 _150_
*170 _151_
*171 _152_
*172 _153_
*173 _154_
*174 _155_
*175 _156_
*176 _157_
*177 _158_
*178 _159_
*179 _160_
*180 _161_
*181 _162_
*182 _163_
*183 _164_
*184 _165_
*185 _166_
*186 _167_
*187 _168_
*188 _169_
*189 _170_
*190 _171_
*191 _172_
*192 _173_
*193 _174_
*194 _175_
*195 _176_
*196 _177_
*197 _178_
*198 _179_
*199 _180_
*200 _181_
*201 _182_
*202 _183_
*203 _184_
*204 _185_
*205 _186_
*206 _187_
*207 _188_
*208 _189_
*209 _190_
*210 _191_
*211 _192_
*212 _193_
*213 _194_
*214 _195_
*215 _196_
*216 _197_
*217 _198_
*218 _199_
*219 _200_
*220 _201_
*221 _202_
*222 _203_
*223 _204_
*224 _205_
*225 _206_
*226 _207_
*227 _208_
*228 _209_
*229 _210_
*230 _211_
*231 _212_
*232 _213_
*233 _214_
*234 _215_
*235 _216_
*236 _217_
*237 _218_
*238 _219_
*239 _220_
*240 _221_
*241 _222_
*242 _223_
*243 _224_
*244 _225_
*245 _226_
*246 _227_
*247 _228_
*248 _229_
*249 _230_
*250 _231_
*251 _232_
*252 _233_
*253 _234_
*254 _235_
*255 _236_
*256 _237_
*257 _238_
*258 _239_
*259 _240_
*260 _241_
*261 _242_
*262 _243_
*263 _244_
*264 _245_
*265 _246_
*266 _247_
*267 _248_
*268 _249_
*269 _250_
*270 _251_
*271 _252_
*272 _253_
*273 _254_
*274 _255_
*275 _256_
*276 _257_
*277 _258_
*278 _259_
*279 _260_
*280 _261_
*281 clknet_0__119_
*282 clknet_0__121_
*283 clknet_0__123_
*284 clknet_0__222_
*285 clknet_0__223_
*286 clknet_0__227_
*287 clknet_0__231_
*288 clknet_0_io_in[0]
*289 clknet_1_0__leaf__119_
*290 clknet_1_0__leaf__121_
*291 clknet_1_0__leaf__123_
*292 clknet_1_0__leaf__222_
*293 clknet_1_0__leaf__223_
*294 clknet_1_0__leaf__227_
*295 clknet_1_0__leaf__231_
*296 clknet_1_1__leaf__119_
*297 clknet_1_1__leaf__121_
*298 clknet_1_1__leaf__123_
*299 clknet_1_1__leaf__222_
*300 clknet_1_1__leaf__223_
*301 clknet_1_1__leaf__227_
*302 clknet_1_1__leaf__231_
*303 clknet_3_0__leaf_io_in[0]
*304 clknet_3_1__leaf_io_in[0]
*305 clknet_3_2__leaf_io_in[0]
*306 clknet_3_3__leaf_io_in[0]
*307 clknet_3_4__leaf_io_in[0]
*308 clknet_3_5__leaf_io_in[0]
*309 clknet_3_6__leaf_io_in[0]
*310 clknet_3_7__leaf_io_in[0]
*311 genblk1\[0\]\.genblk1\[0\]\.c\.dff
*312 genblk1\[0\]\.genblk1\[1\]\.c\.dff
*313 genblk1\[0\]\.genblk1\[2\]\.c\.dff
*314 genblk1\[0\]\.genblk1\[3\]\.c\.dff
*315 genblk1\[0\]\.genblk1\[4\]\.c\.dff
*316 genblk1\[0\]\.genblk1\[5\]\.c\.dff
*317 genblk1\[0\]\.genblk1\[6\]\.c\.dff
*318 genblk1\[0\]\.genblk1\[7\]\.c\.dff
*319 genblk1\[0\]\.genblk1\[7\]\.c\.q
*320 genblk1\[1\]\.genblk1\[0\]\.c\.dff
*321 genblk1\[1\]\.genblk1\[1\]\.c\.dff
*322 genblk1\[1\]\.genblk1\[2\]\.c\.dff
*323 genblk1\[1\]\.genblk1\[3\]\.c\.dff
*324 genblk1\[1\]\.genblk1\[4\]\.c\.dff
*325 genblk1\[1\]\.genblk1\[5\]\.c\.dff
*326 genblk1\[1\]\.genblk1\[6\]\.c\.dff
*327 genblk1\[1\]\.genblk1\[7\]\.c\.dff
*328 genblk1\[1\]\.genblk1\[7\]\.c\.q
*329 genblk1\[2\]\.genblk1\[0\]\.c\.dff
*330 genblk1\[2\]\.genblk1\[1\]\.c\.dff
*331 genblk1\[2\]\.genblk1\[2\]\.c\.dff
*332 genblk1\[2\]\.genblk1\[3\]\.c\.dff
*333 genblk1\[2\]\.genblk1\[4\]\.c\.dff
*334 genblk1\[2\]\.genblk1\[5\]\.c\.dff
*335 genblk1\[2\]\.genblk1\[6\]\.c\.dff
*336 genblk1\[2\]\.genblk1\[7\]\.c\.dff
*337 genblk1\[2\]\.genblk1\[7\]\.c\.q
*338 genblk1\[3\]\.genblk1\[0\]\.c\.dff
*339 genblk1\[3\]\.genblk1\[1\]\.c\.dff
*340 genblk1\[3\]\.genblk1\[2\]\.c\.dff
*341 genblk1\[3\]\.genblk1\[3\]\.c\.dff
*342 genblk1\[3\]\.genblk1\[4\]\.c\.dff
*343 genblk1\[3\]\.genblk1\[5\]\.c\.dff
*344 genblk1\[3\]\.genblk1\[6\]\.c\.dff
*345 genblk1\[3\]\.genblk1\[7\]\.c\.dff
*346 genblk1\[3\]\.genblk1\[7\]\.c\.q
*347 genblk1\[4\]\.genblk1\[0\]\.c\.dff
*348 genblk1\[4\]\.genblk1\[1\]\.c\.dff
*349 genblk1\[4\]\.genblk1\[2\]\.c\.dff
*350 genblk1\[4\]\.genblk1\[3\]\.c\.dff
*351 genblk1\[4\]\.genblk1\[4\]\.c\.dff
*352 genblk1\[4\]\.genblk1\[5\]\.c\.dff
*353 genblk1\[4\]\.genblk1\[6\]\.c\.dff
*354 genblk1\[4\]\.genblk1\[7\]\.c\.dff
*355 genblk1\[4\]\.genblk1\[7\]\.c\.q
*356 genblk1\[5\]\.genblk1\[0\]\.c\.dff
*357 genblk1\[5\]\.genblk1\[1\]\.c\.dff
*358 genblk1\[5\]\.genblk1\[2\]\.c\.dff
*359 genblk1\[5\]\.genblk1\[3\]\.c\.dff
*360 genblk1\[5\]\.genblk1\[4\]\.c\.dff
*361 genblk1\[5\]\.genblk1\[5\]\.c\.dff
*362 genblk1\[5\]\.genblk1\[6\]\.c\.dff
*363 genblk1\[5\]\.genblk1\[7\]\.c\.dff
*364 genblk1\[5\]\.genblk1\[7\]\.c\.q
*365 genblk1\[6\]\.genblk1\[0\]\.c\.dff
*366 genblk1\[6\]\.genblk1\[1\]\.c\.dff
*367 genblk1\[6\]\.genblk1\[2\]\.c\.dff
*368 genblk1\[6\]\.genblk1\[3\]\.c\.dff
*369 genblk1\[6\]\.genblk1\[4\]\.c\.dff
*370 genblk1\[6\]\.genblk1\[5\]\.c\.dff
*371 genblk1\[6\]\.genblk1\[6\]\.c\.dff
*372 genblk1\[6\]\.genblk1\[7\]\.c\.dff
*373 genblk1\[6\]\.genblk1\[7\]\.c\.q
*374 genblk1\[7\]\.genblk1\[0\]\.c\.dff
*375 genblk1\[7\]\.genblk1\[1\]\.c\.dff
*376 genblk1\[7\]\.genblk1\[2\]\.c\.dff
*377 genblk1\[7\]\.genblk1\[3\]\.c\.dff
*378 genblk1\[7\]\.genblk1\[4\]\.c\.dff
*379 genblk1\[7\]\.genblk1\[5\]\.c\.dff
*380 genblk1\[7\]\.genblk1\[6\]\.c\.dff
*381 genblk1\[7\]\.genblk1\[7\]\.c\.dff
*382 genblk1\[7\]\.genblk1\[7\]\.c\.q
*383 net1
*384 net2
*385 net3
*386 net4
*387 net5
*388 net6
*389 net7
*390 ANTENNA_1
*391 ANTENNA_10
*392 ANTENNA_11
*393 ANTENNA_12
*394 ANTENNA_2
*395 ANTENNA_3
*396 ANTENNA_4
*397 ANTENNA_5
*398 ANTENNA_6
*399 ANTENNA_7
*400 ANTENNA_8
*401 ANTENNA_9
*402 FILLER_0_104
*403 FILLER_0_108
*404 FILLER_0_113
*405 FILLER_0_131
*406 FILLER_0_139
*407 FILLER_0_141
*408 FILLER_0_153
*409 FILLER_0_165
*410 FILLER_0_169
*411 FILLER_0_181
*412 FILLER_0_193
*413 FILLER_0_197
*414 FILLER_0_209
*415 FILLER_0_221
*416 FILLER_0_225
*417 FILLER_0_237
*418 FILLER_0_249
*419 FILLER_0_253
*420 FILLER_0_26
*421 FILLER_0_265
*422 FILLER_0_277
*423 FILLER_0_281
*424 FILLER_0_29
*425 FILLER_0_293
*426 FILLER_0_3
*427 FILLER_0_33
*428 FILLER_0_36
*429 FILLER_0_54
*430 FILLER_0_57
*431 FILLER_0_75
*432 FILLER_0_79
*433 FILLER_0_83
*434 FILLER_0_85
*435 FILLER_0_9
*436 FILLER_10_103
*437 FILLER_10_115
*438 FILLER_10_127
*439 FILLER_10_139
*440 FILLER_10_141
*441 FILLER_10_153
*442 FILLER_10_165
*443 FILLER_10_177
*444 FILLER_10_189
*445 FILLER_10_195
*446 FILLER_10_197
*447 FILLER_10_209
*448 FILLER_10_21
*449 FILLER_10_221
*450 FILLER_10_233
*451 FILLER_10_245
*452 FILLER_10_251
*453 FILLER_10_253
*454 FILLER_10_265
*455 FILLER_10_27
*456 FILLER_10_277
*457 FILLER_10_289
*458 FILLER_10_29
*459 FILLER_10_297
*460 FILLER_10_3
*461 FILLER_10_37
*462 FILLER_10_61
*463 FILLER_10_81
*464 FILLER_10_85
*465 FILLER_11_105
*466 FILLER_11_11
*467 FILLER_11_111
*468 FILLER_11_113
*469 FILLER_11_125
*470 FILLER_11_137
*471 FILLER_11_149
*472 FILLER_11_15
*473 FILLER_11_161
*474 FILLER_11_167
*475 FILLER_11_169
*476 FILLER_11_181
*477 FILLER_11_193
*478 FILLER_11_205
*479 FILLER_11_217
*480 FILLER_11_223
*481 FILLER_11_225
*482 FILLER_11_237
*483 FILLER_11_249
*484 FILLER_11_261
*485 FILLER_11_273
*486 FILLER_11_279
*487 FILLER_11_281
*488 FILLER_11_293
*489 FILLER_11_3
*490 FILLER_11_36
*491 FILLER_11_43
*492 FILLER_11_55
*493 FILLER_11_57
*494 FILLER_11_69
*495 FILLER_11_93
*496 FILLER_12_106
*497 FILLER_12_118
*498 FILLER_12_130
*499 FILLER_12_138
*500 FILLER_12_141
*501 FILLER_12_153
*502 FILLER_12_165
*503 FILLER_12_177
*504 FILLER_12_189
*505 FILLER_12_195
*506 FILLER_12_197
*507 FILLER_12_209
*508 FILLER_12_221
*509 FILLER_12_233
*510 FILLER_12_245
*511 FILLER_12_251
*512 FILLER_12_253
*513 FILLER_12_26
*514 FILLER_12_265
*515 FILLER_12_277
*516 FILLER_12_289
*517 FILLER_12_29
*518 FILLER_12_297
*519 FILLER_12_3
*520 FILLER_12_47
*521 FILLER_12_75
*522 FILLER_12_83
*523 FILLER_12_85
*524 FILLER_12_89
*525 FILLER_12_9
*526 FILLER_13_104
*527 FILLER_13_113
*528 FILLER_13_125
*529 FILLER_13_137
*530 FILLER_13_149
*531 FILLER_13_161
*532 FILLER_13_167
*533 FILLER_13_169
*534 FILLER_13_181
*535 FILLER_13_193
*536 FILLER_13_205
*537 FILLER_13_21
*538 FILLER_13_217
*539 FILLER_13_223
*540 FILLER_13_225
*541 FILLER_13_237
*542 FILLER_13_249
*543 FILLER_13_261
*544 FILLER_13_273
*545 FILLER_13_279
*546 FILLER_13_281
*547 FILLER_13_293
*548 FILLER_13_3
*549 FILLER_13_31
*550 FILLER_13_37
*551 FILLER_13_54
*552 FILLER_13_57
*553 FILLER_13_81
*554 FILLER_13_93
*555 FILLER_14_109
*556 FILLER_14_121
*557 FILLER_14_133
*558 FILLER_14_139
*559 FILLER_14_141
*560 FILLER_14_153
*561 FILLER_14_165
*562 FILLER_14_177
*563 FILLER_14_189
*564 FILLER_14_195
*565 FILLER_14_197
*566 FILLER_14_209
*567 FILLER_14_221
*568 FILLER_14_233
*569 FILLER_14_245
*570 FILLER_14_251
*571 FILLER_14_253
*572 FILLER_14_26
*573 FILLER_14_265
*574 FILLER_14_277
*575 FILLER_14_289
*576 FILLER_14_29
*577 FILLER_14_297
*578 FILLER_14_3
*579 FILLER_14_47
*580 FILLER_14_67
*581 FILLER_14_79
*582 FILLER_14_8
*583 FILLER_14_83
*584 FILLER_14_85
*585 FILLER_14_97
*586 FILLER_15_111
*587 FILLER_15_113
*588 FILLER_15_12
*589 FILLER_15_125
*590 FILLER_15_137
*591 FILLER_15_149
*592 FILLER_15_161
*593 FILLER_15_167
*594 FILLER_15_169
*595 FILLER_15_181
*596 FILLER_15_193
*597 FILLER_15_205
*598 FILLER_15_217
*599 FILLER_15_223
*600 FILLER_15_225
*601 FILLER_15_237
*602 FILLER_15_249
*603 FILLER_15_261
*604 FILLER_15_273
*605 FILLER_15_279
*606 FILLER_15_281
*607 FILLER_15_293
*608 FILLER_15_3
*609 FILLER_15_36
*610 FILLER_15_40
*611 FILLER_15_47
*612 FILLER_15_54
*613 FILLER_15_57
*614 FILLER_15_79
*615 FILLER_15_99
*616 FILLER_16_109
*617 FILLER_16_121
*618 FILLER_16_133
*619 FILLER_16_139
*620 FILLER_16_141
*621 FILLER_16_153
*622 FILLER_16_165
*623 FILLER_16_177
*624 FILLER_16_189
*625 FILLER_16_195
*626 FILLER_16_197
*627 FILLER_16_209
*628 FILLER_16_21
*629 FILLER_16_221
*630 FILLER_16_233
*631 FILLER_16_245
*632 FILLER_16_251
*633 FILLER_16_253
*634 FILLER_16_265
*635 FILLER_16_27
*636 FILLER_16_277
*637 FILLER_16_289
*638 FILLER_16_29
*639 FILLER_16_297
*640 FILLER_16_3
*641 FILLER_16_40
*642 FILLER_16_44
*643 FILLER_16_65
*644 FILLER_16_76
*645 FILLER_16_85
*646 FILLER_16_97
*647 FILLER_17_106
*648 FILLER_17_113
*649 FILLER_17_12
*650 FILLER_17_125
*651 FILLER_17_137
*652 FILLER_17_149
*653 FILLER_17_161
*654 FILLER_17_167
*655 FILLER_17_169
*656 FILLER_17_181
*657 FILLER_17_193
*658 FILLER_17_205
*659 FILLER_17_217
*660 FILLER_17_223
*661 FILLER_17_225
*662 FILLER_17_237
*663 FILLER_17_249
*664 FILLER_17_261
*665 FILLER_17_273
*666 FILLER_17_279
*667 FILLER_17_281
*668 FILLER_17_293
*669 FILLER_17_3
*670 FILLER_17_36
*671 FILLER_17_44
*672 FILLER_17_54
*673 FILLER_17_57
*674 FILLER_17_75
*675 FILLER_17_79
*676 FILLER_17_85
*677 FILLER_17_94
*678 FILLER_18_103
*679 FILLER_18_115
*680 FILLER_18_127
*681 FILLER_18_139
*682 FILLER_18_141
*683 FILLER_18_153
*684 FILLER_18_165
*685 FILLER_18_177
*686 FILLER_18_189
*687 FILLER_18_195
*688 FILLER_18_197
*689 FILLER_18_209
*690 FILLER_18_21
*691 FILLER_18_221
*692 FILLER_18_233
*693 FILLER_18_245
*694 FILLER_18_251
*695 FILLER_18_253
*696 FILLER_18_265
*697 FILLER_18_27
*698 FILLER_18_277
*699 FILLER_18_289
*700 FILLER_18_29
*701 FILLER_18_297
*702 FILLER_18_3
*703 FILLER_18_41
*704 FILLER_18_65
*705 FILLER_18_77
*706 FILLER_18_83
*707 FILLER_18_85
*708 FILLER_19_103
*709 FILLER_19_111
*710 FILLER_19_113
*711 FILLER_19_125
*712 FILLER_19_137
*713 FILLER_19_149
*714 FILLER_19_161
*715 FILLER_19_167
*716 FILLER_19_169
*717 FILLER_19_181
*718 FILLER_19_193
*719 FILLER_19_205
*720 FILLER_19_217
*721 FILLER_19_223
*722 FILLER_19_225
*723 FILLER_19_237
*724 FILLER_19_249
*725 FILLER_19_261
*726 FILLER_19_273
*727 FILLER_19_279
*728 FILLER_19_281
*729 FILLER_19_29
*730 FILLER_19_293
*731 FILLER_19_3
*732 FILLER_19_53
*733 FILLER_19_57
*734 FILLER_19_75
*735 FILLER_19_81
*736 FILLER_19_85
*737 FILLER_19_9
*738 FILLER_1_105
*739 FILLER_1_111
*740 FILLER_1_113
*741 FILLER_1_125
*742 FILLER_1_137
*743 FILLER_1_149
*744 FILLER_1_15
*745 FILLER_1_161
*746 FILLER_1_167
*747 FILLER_1_169
*748 FILLER_1_181
*749 FILLER_1_193
*750 FILLER_1_205
*751 FILLER_1_217
*752 FILLER_1_223
*753 FILLER_1_225
*754 FILLER_1_237
*755 FILLER_1_249
*756 FILLER_1_261
*757 FILLER_1_273
*758 FILLER_1_279
*759 FILLER_1_281
*760 FILLER_1_293
*761 FILLER_1_3
*762 FILLER_1_32
*763 FILLER_1_36
*764 FILLER_1_54
*765 FILLER_1_57
*766 FILLER_1_61
*767 FILLER_1_64
*768 FILLER_1_82
*769 FILLER_1_87
*770 FILLER_20_103
*771 FILLER_20_115
*772 FILLER_20_127
*773 FILLER_20_139
*774 FILLER_20_141
*775 FILLER_20_153
*776 FILLER_20_165
*777 FILLER_20_177
*778 FILLER_20_189
*779 FILLER_20_195
*780 FILLER_20_197
*781 FILLER_20_209
*782 FILLER_20_221
*783 FILLER_20_233
*784 FILLER_20_245
*785 FILLER_20_25
*786 FILLER_20_251
*787 FILLER_20_253
*788 FILLER_20_265
*789 FILLER_20_277
*790 FILLER_20_289
*791 FILLER_20_29
*792 FILLER_20_297
*793 FILLER_20_3
*794 FILLER_20_49
*795 FILLER_20_53
*796 FILLER_20_74
*797 FILLER_20_82
*798 FILLER_20_85
*799 FILLER_21_103
*800 FILLER_21_111
*801 FILLER_21_113
*802 FILLER_21_120
*803 FILLER_21_132
*804 FILLER_21_144
*805 FILLER_21_156
*806 FILLER_21_169
*807 FILLER_21_181
*808 FILLER_21_193
*809 FILLER_21_205
*810 FILLER_21_217
*811 FILLER_21_223
*812 FILLER_21_225
*813 FILLER_21_237
*814 FILLER_21_249
*815 FILLER_21_261
*816 FILLER_21_273
*817 FILLER_21_279
*818 FILLER_21_281
*819 FILLER_21_293
*820 FILLER_21_3
*821 FILLER_21_30
*822 FILLER_21_54
*823 FILLER_21_57
*824 FILLER_21_67
*825 FILLER_21_9
*826 FILLER_21_93
*827 FILLER_22_107
*828 FILLER_22_120
*829 FILLER_22_132
*830 FILLER_22_141
*831 FILLER_22_153
*832 FILLER_22_165
*833 FILLER_22_177
*834 FILLER_22_189
*835 FILLER_22_195
*836 FILLER_22_197
*837 FILLER_22_209
*838 FILLER_22_221
*839 FILLER_22_233
*840 FILLER_22_245
*841 FILLER_22_251
*842 FILLER_22_253
*843 FILLER_22_26
*844 FILLER_22_265
*845 FILLER_22_277
*846 FILLER_22_289
*847 FILLER_22_29
*848 FILLER_22_297
*849 FILLER_22_3
*850 FILLER_22_34
*851 FILLER_22_58
*852 FILLER_22_82
*853 FILLER_22_85
*854 FILLER_23_109
*855 FILLER_23_113
*856 FILLER_23_120
*857 FILLER_23_133
*858 FILLER_23_140
*859 FILLER_23_152
*860 FILLER_23_164
*861 FILLER_23_169
*862 FILLER_23_181
*863 FILLER_23_193
*864 FILLER_23_205
*865 FILLER_23_217
*866 FILLER_23_223
*867 FILLER_23_225
*868 FILLER_23_237
*869 FILLER_23_249
*870 FILLER_23_261
*871 FILLER_23_273
*872 FILLER_23_279
*873 FILLER_23_281
*874 FILLER_23_293
*875 FILLER_23_3
*876 FILLER_23_30
*877 FILLER_23_54
*878 FILLER_23_57
*879 FILLER_23_68
*880 FILLER_23_72
*881 FILLER_23_9
*882 FILLER_23_93
*883 FILLER_23_99
*884 FILLER_24_103
*885 FILLER_24_130
*886 FILLER_24_138
*887 FILLER_24_141
*888 FILLER_24_153
*889 FILLER_24_165
*890 FILLER_24_177
*891 FILLER_24_191
*892 FILLER_24_195
*893 FILLER_24_197
*894 FILLER_24_209
*895 FILLER_24_221
*896 FILLER_24_233
*897 FILLER_24_245
*898 FILLER_24_25
*899 FILLER_24_251
*900 FILLER_24_253
*901 FILLER_24_265
*902 FILLER_24_277
*903 FILLER_24_289
*904 FILLER_24_29
*905 FILLER_24_297
*906 FILLER_24_3
*907 FILLER_24_51
*908 FILLER_24_55
*909 FILLER_24_76
*910 FILLER_24_85
*911 FILLER_25_104
*912 FILLER_25_113
*913 FILLER_25_118
*914 FILLER_25_12
*915 FILLER_25_130
*916 FILLER_25_138
*917 FILLER_25_147
*918 FILLER_25_159
*919 FILLER_25_167
*920 FILLER_25_169
*921 FILLER_25_181
*922 FILLER_25_193
*923 FILLER_25_205
*924 FILLER_25_217
*925 FILLER_25_223
*926 FILLER_25_225
*927 FILLER_25_237
*928 FILLER_25_249
*929 FILLER_25_261
*930 FILLER_25_273
*931 FILLER_25_279
*932 FILLER_25_281
*933 FILLER_25_293
*934 FILLER_25_3
*935 FILLER_25_36
*936 FILLER_25_48
*937 FILLER_25_57
*938 FILLER_25_79
*939 FILLER_25_87
*940 FILLER_26_103
*941 FILLER_26_116
*942 FILLER_26_123
*943 FILLER_26_135
*944 FILLER_26_139
*945 FILLER_26_141
*946 FILLER_26_153
*947 FILLER_26_165
*948 FILLER_26_173
*949 FILLER_26_183
*950 FILLER_26_195
*951 FILLER_26_197
*952 FILLER_26_209
*953 FILLER_26_221
*954 FILLER_26_233
*955 FILLER_26_245
*956 FILLER_26_251
*957 FILLER_26_253
*958 FILLER_26_26
*959 FILLER_26_265
*960 FILLER_26_277
*961 FILLER_26_289
*962 FILLER_26_29
*963 FILLER_26_297
*964 FILLER_26_3
*965 FILLER_26_40
*966 FILLER_26_44
*967 FILLER_26_65
*968 FILLER_26_78
*969 FILLER_26_85
*970 FILLER_26_9
*971 FILLER_27_106
*972 FILLER_27_113
*973 FILLER_27_124
*974 FILLER_27_133
*975 FILLER_27_145
*976 FILLER_27_157
*977 FILLER_27_165
*978 FILLER_27_169
*979 FILLER_27_181
*980 FILLER_27_19
*981 FILLER_27_193
*982 FILLER_27_205
*983 FILLER_27_217
*984 FILLER_27_223
*985 FILLER_27_225
*986 FILLER_27_237
*987 FILLER_27_249
*988 FILLER_27_261
*989 FILLER_27_273
*990 FILLER_27_279
*991 FILLER_27_281
*992 FILLER_27_293
*993 FILLER_27_3
*994 FILLER_27_43
*995 FILLER_27_54
*996 FILLER_27_57
*997 FILLER_27_66
*998 FILLER_27_76
*999 FILLER_27_82
*1000 FILLER_27_99
*1001 FILLER_28_100
*1002 FILLER_28_106
*1003 FILLER_28_120
*1004 FILLER_28_133
*1005 FILLER_28_139
*1006 FILLER_28_141
*1007 FILLER_28_153
*1008 FILLER_28_159
*1009 FILLER_28_171
*1010 FILLER_28_183
*1011 FILLER_28_195
*1012 FILLER_28_197
*1013 FILLER_28_209
*1014 FILLER_28_221
*1015 FILLER_28_233
*1016 FILLER_28_245
*1017 FILLER_28_251
*1018 FILLER_28_253
*1019 FILLER_28_26
*1020 FILLER_28_265
*1021 FILLER_28_277
*1022 FILLER_28_289
*1023 FILLER_28_29
*1024 FILLER_28_297
*1025 FILLER_28_3
*1026 FILLER_28_47
*1027 FILLER_28_55
*1028 FILLER_28_65
*1029 FILLER_28_77
*1030 FILLER_28_83
*1031 FILLER_28_85
*1032 FILLER_28_9
*1033 FILLER_28_92
*1034 FILLER_29_102
*1035 FILLER_29_110
*1036 FILLER_29_113
*1037 FILLER_29_118
*1038 FILLER_29_127
*1039 FILLER_29_136
*1040 FILLER_29_145
*1041 FILLER_29_15
*1042 FILLER_29_157
*1043 FILLER_29_166
*1044 FILLER_29_169
*1045 FILLER_29_181
*1046 FILLER_29_193
*1047 FILLER_29_205
*1048 FILLER_29_217
*1049 FILLER_29_223
*1050 FILLER_29_225
*1051 FILLER_29_237
*1052 FILLER_29_249
*1053 FILLER_29_261
*1054 FILLER_29_273
*1055 FILLER_29_279
*1056 FILLER_29_281
*1057 FILLER_29_293
*1058 FILLER_29_3
*1059 FILLER_29_35
*1060 FILLER_29_47
*1061 FILLER_29_54
*1062 FILLER_29_57
*1063 FILLER_29_61
*1064 FILLER_29_69
*1065 FILLER_29_78
*1066 FILLER_29_86
*1067 FILLER_29_93
*1068 FILLER_29_97
*1069 FILLER_2_106
*1070 FILLER_2_118
*1071 FILLER_2_130
*1072 FILLER_2_138
*1073 FILLER_2_141
*1074 FILLER_2_153
*1075 FILLER_2_165
*1076 FILLER_2_177
*1077 FILLER_2_189
*1078 FILLER_2_195
*1079 FILLER_2_197
*1080 FILLER_2_209
*1081 FILLER_2_221
*1082 FILLER_2_233
*1083 FILLER_2_245
*1084 FILLER_2_251
*1085 FILLER_2_253
*1086 FILLER_2_26
*1087 FILLER_2_265
*1088 FILLER_2_277
*1089 FILLER_2_289
*1090 FILLER_2_29
*1091 FILLER_2_297
*1092 FILLER_2_3
*1093 FILLER_2_41
*1094 FILLER_2_45
*1095 FILLER_2_62
*1096 FILLER_2_82
*1097 FILLER_2_85
*1098 FILLER_2_89
*1099 FILLER_2_9
*1100 FILLER_30_108
*1101 FILLER_30_121
*1102 FILLER_30_135
*1103 FILLER_30_139
*1104 FILLER_30_141
*1105 FILLER_30_150
*1106 FILLER_30_166
*1107 FILLER_30_17
*1108 FILLER_30_178
*1109 FILLER_30_190
*1110 FILLER_30_197
*1111 FILLER_30_209
*1112 FILLER_30_221
*1113 FILLER_30_233
*1114 FILLER_30_245
*1115 FILLER_30_25
*1116 FILLER_30_251
*1117 FILLER_30_253
*1118 FILLER_30_265
*1119 FILLER_30_277
*1120 FILLER_30_289
*1121 FILLER_30_29
*1122 FILLER_30_297
*1123 FILLER_30_3
*1124 FILLER_30_39
*1125 FILLER_30_49
*1126 FILLER_30_55
*1127 FILLER_30_64
*1128 FILLER_30_72
*1129 FILLER_30_82
*1130 FILLER_30_85
*1131 FILLER_30_93
*1132 FILLER_31_101
*1133 FILLER_31_108
*1134 FILLER_31_113
*1135 FILLER_31_119
*1136 FILLER_31_132
*1137 FILLER_31_144
*1138 FILLER_31_15
*1139 FILLER_31_151
*1140 FILLER_31_159
*1141 FILLER_31_165
*1142 FILLER_31_169
*1143 FILLER_31_181
*1144 FILLER_31_193
*1145 FILLER_31_205
*1146 FILLER_31_217
*1147 FILLER_31_223
*1148 FILLER_31_225
*1149 FILLER_31_237
*1150 FILLER_31_249
*1151 FILLER_31_26
*1152 FILLER_31_261
*1153 FILLER_31_273
*1154 FILLER_31_279
*1155 FILLER_31_281
*1156 FILLER_31_293
*1157 FILLER_31_3
*1158 FILLER_31_30
*1159 FILLER_31_38
*1160 FILLER_31_44
*1161 FILLER_31_49
*1162 FILLER_31_55
*1163 FILLER_31_57
*1164 FILLER_31_70
*1165 FILLER_31_84
*1166 FILLER_31_92
*1167 FILLER_32_100
*1168 FILLER_32_111
*1169 FILLER_32_118
*1170 FILLER_32_126
*1171 FILLER_32_130
*1172 FILLER_32_138
*1173 FILLER_32_141
*1174 FILLER_32_15
*1175 FILLER_32_155
*1176 FILLER_32_159
*1177 FILLER_32_168
*1178 FILLER_32_180
*1179 FILLER_32_192
*1180 FILLER_32_197
*1181 FILLER_32_209
*1182 FILLER_32_221
*1183 FILLER_32_233
*1184 FILLER_32_245
*1185 FILLER_32_25
*1186 FILLER_32_251
*1187 FILLER_32_253
*1188 FILLER_32_265
*1189 FILLER_32_277
*1190 FILLER_32_289
*1191 FILLER_32_29
*1192 FILLER_32_297
*1193 FILLER_32_3
*1194 FILLER_32_37
*1195 FILLER_32_43
*1196 FILLER_32_53
*1197 FILLER_32_67
*1198 FILLER_32_7
*1199 FILLER_32_75
*1200 FILLER_32_82
*1201 FILLER_32_85
*1202 FILLER_32_92
*1203 FILLER_33_105
*1204 FILLER_33_111
*1205 FILLER_33_113
*1206 FILLER_33_121
*1207 FILLER_33_133
*1208 FILLER_33_145
*1209 FILLER_33_150
*1210 FILLER_33_16
*1211 FILLER_33_162
*1212 FILLER_33_169
*1213 FILLER_33_181
*1214 FILLER_33_193
*1215 FILLER_33_205
*1216 FILLER_33_217
*1217 FILLER_33_223
*1218 FILLER_33_225
*1219 FILLER_33_237
*1220 FILLER_33_249
*1221 FILLER_33_261
*1222 FILLER_33_273
*1223 FILLER_33_279
*1224 FILLER_33_28
*1225 FILLER_33_281
*1226 FILLER_33_293
*1227 FILLER_33_3
*1228 FILLER_33_40
*1229 FILLER_33_45
*1230 FILLER_33_54
*1231 FILLER_33_57
*1232 FILLER_33_68
*1233 FILLER_33_9
*1234 FILLER_33_93
*1235 FILLER_34_103
*1236 FILLER_34_111
*1237 FILLER_34_118
*1238 FILLER_34_128
*1239 FILLER_34_136
*1240 FILLER_34_141
*1241 FILLER_34_15
*1242 FILLER_34_150
*1243 FILLER_34_158
*1244 FILLER_34_174
*1245 FILLER_34_184
*1246 FILLER_34_192
*1247 FILLER_34_197
*1248 FILLER_34_209
*1249 FILLER_34_221
*1250 FILLER_34_233
*1251 FILLER_34_245
*1252 FILLER_34_251
*1253 FILLER_34_253
*1254 FILLER_34_26
*1255 FILLER_34_265
*1256 FILLER_34_277
*1257 FILLER_34_289
*1258 FILLER_34_29
*1259 FILLER_34_297
*1260 FILLER_34_3
*1261 FILLER_34_41
*1262 FILLER_34_47
*1263 FILLER_34_55
*1264 FILLER_34_63
*1265 FILLER_34_67
*1266 FILLER_34_80
*1267 FILLER_34_85
*1268 FILLER_34_94
*1269 FILLER_35_105
*1270 FILLER_35_111
*1271 FILLER_35_113
*1272 FILLER_35_123
*1273 FILLER_35_127
*1274 FILLER_35_135
*1275 FILLER_35_147
*1276 FILLER_35_159
*1277 FILLER_35_167
*1278 FILLER_35_169
*1279 FILLER_35_17
*1280 FILLER_35_178
*1281 FILLER_35_190
*1282 FILLER_35_202
*1283 FILLER_35_214
*1284 FILLER_35_222
*1285 FILLER_35_225
*1286 FILLER_35_237
*1287 FILLER_35_249
*1288 FILLER_35_261
*1289 FILLER_35_273
*1290 FILLER_35_279
*1291 FILLER_35_281
*1292 FILLER_35_29
*1293 FILLER_35_293
*1294 FILLER_35_3
*1295 FILLER_35_33
*1296 FILLER_35_38
*1297 FILLER_35_46
*1298 FILLER_35_54
*1299 FILLER_35_57
*1300 FILLER_35_63
*1301 FILLER_35_71
*1302 FILLER_35_75
*1303 FILLER_35_97
*1304 FILLER_36_103
*1305 FILLER_36_116
*1306 FILLER_36_123
*1307 FILLER_36_135
*1308 FILLER_36_139
*1309 FILLER_36_141
*1310 FILLER_36_145
*1311 FILLER_36_15
*1312 FILLER_36_152
*1313 FILLER_36_159
*1314 FILLER_36_171
*1315 FILLER_36_183
*1316 FILLER_36_195
*1317 FILLER_36_197
*1318 FILLER_36_209
*1319 FILLER_36_221
*1320 FILLER_36_233
*1321 FILLER_36_245
*1322 FILLER_36_251
*1323 FILLER_36_253
*1324 FILLER_36_265
*1325 FILLER_36_27
*1326 FILLER_36_277
*1327 FILLER_36_289
*1328 FILLER_36_29
*1329 FILLER_36_297
*1330 FILLER_36_3
*1331 FILLER_36_41
*1332 FILLER_36_48
*1333 FILLER_36_55
*1334 FILLER_36_62
*1335 FILLER_36_71
*1336 FILLER_36_78
*1337 FILLER_36_85
*1338 FILLER_36_89
*1339 FILLER_36_94
*1340 FILLER_37_109
*1341 FILLER_37_113
*1342 FILLER_37_117
*1343 FILLER_37_124
*1344 FILLER_37_128
*1345 FILLER_37_132
*1346 FILLER_37_136
*1347 FILLER_37_143
*1348 FILLER_37_155
*1349 FILLER_37_167
*1350 FILLER_37_169
*1351 FILLER_37_18
*1352 FILLER_37_181
*1353 FILLER_37_185
*1354 FILLER_37_190
*1355 FILLER_37_202
*1356 FILLER_37_214
*1357 FILLER_37_222
*1358 FILLER_37_225
*1359 FILLER_37_237
*1360 FILLER_37_249
*1361 FILLER_37_261
*1362 FILLER_37_273
*1363 FILLER_37_279
*1364 FILLER_37_281
*1365 FILLER_37_293
*1366 FILLER_37_3
*1367 FILLER_37_30
*1368 FILLER_37_38
*1369 FILLER_37_46
*1370 FILLER_37_54
*1371 FILLER_37_57
*1372 FILLER_37_67
*1373 FILLER_37_75
*1374 FILLER_37_79
*1375 FILLER_37_8
*1376 FILLER_37_87
*1377 FILLER_37_95
*1378 FILLER_38_102
*1379 FILLER_38_108
*1380 FILLER_38_115
*1381 FILLER_38_125
*1382 FILLER_38_133
*1383 FILLER_38_139
*1384 FILLER_38_141
*1385 FILLER_38_147
*1386 FILLER_38_15
*1387 FILLER_38_156
*1388 FILLER_38_168
*1389 FILLER_38_180
*1390 FILLER_38_192
*1391 FILLER_38_197
*1392 FILLER_38_209
*1393 FILLER_38_221
*1394 FILLER_38_233
*1395 FILLER_38_245
*1396 FILLER_38_251
*1397 FILLER_38_253
*1398 FILLER_38_265
*1399 FILLER_38_27
*1400 FILLER_38_277
*1401 FILLER_38_289
*1402 FILLER_38_29
*1403 FILLER_38_297
*1404 FILLER_38_3
*1405 FILLER_38_45
*1406 FILLER_38_57
*1407 FILLER_38_67
*1408 FILLER_38_82
*1409 FILLER_38_85
*1410 FILLER_38_92
*1411 FILLER_39_104
*1412 FILLER_39_110
*1413 FILLER_39_113
*1414 FILLER_39_123
*1415 FILLER_39_127
*1416 FILLER_39_134
*1417 FILLER_39_14
*1418 FILLER_39_144
*1419 FILLER_39_151
*1420 FILLER_39_158
*1421 FILLER_39_166
*1422 FILLER_39_169
*1423 FILLER_39_181
*1424 FILLER_39_193
*1425 FILLER_39_205
*1426 FILLER_39_217
*1427 FILLER_39_22
*1428 FILLER_39_223
*1429 FILLER_39_225
*1430 FILLER_39_237
*1431 FILLER_39_249
*1432 FILLER_39_261
*1433 FILLER_39_273
*1434 FILLER_39_279
*1435 FILLER_39_281
*1436 FILLER_39_293
*1437 FILLER_39_3
*1438 FILLER_39_34
*1439 FILLER_39_44
*1440 FILLER_39_54
*1441 FILLER_39_57
*1442 FILLER_39_64
*1443 FILLER_39_89
*1444 FILLER_39_9
*1445 FILLER_39_93
*1446 FILLER_39_98
*1447 FILLER_3_105
*1448 FILLER_3_111
*1449 FILLER_3_113
*1450 FILLER_3_125
*1451 FILLER_3_137
*1452 FILLER_3_149
*1453 FILLER_3_15
*1454 FILLER_3_161
*1455 FILLER_3_167
*1456 FILLER_3_169
*1457 FILLER_3_181
*1458 FILLER_3_193
*1459 FILLER_3_205
*1460 FILLER_3_217
*1461 FILLER_3_223
*1462 FILLER_3_225
*1463 FILLER_3_237
*1464 FILLER_3_249
*1465 FILLER_3_261
*1466 FILLER_3_273
*1467 FILLER_3_279
*1468 FILLER_3_281
*1469 FILLER_3_293
*1470 FILLER_3_3
*1471 FILLER_3_36
*1472 FILLER_3_48
*1473 FILLER_3_57
*1474 FILLER_3_69
*1475 FILLER_3_93
*1476 FILLER_40_108
*1477 FILLER_40_116
*1478 FILLER_40_120
*1479 FILLER_40_127
*1480 FILLER_40_13
*1481 FILLER_40_137
*1482 FILLER_40_141
*1483 FILLER_40_147
*1484 FILLER_40_159
*1485 FILLER_40_171
*1486 FILLER_40_183
*1487 FILLER_40_195
*1488 FILLER_40_197
*1489 FILLER_40_209
*1490 FILLER_40_221
*1491 FILLER_40_233
*1492 FILLER_40_245
*1493 FILLER_40_25
*1494 FILLER_40_251
*1495 FILLER_40_253
*1496 FILLER_40_265
*1497 FILLER_40_277
*1498 FILLER_40_289
*1499 FILLER_40_29
*1500 FILLER_40_297
*1501 FILLER_40_3
*1502 FILLER_40_37
*1503 FILLER_40_43
*1504 FILLER_40_68
*1505 FILLER_40_76
*1506 FILLER_40_82
*1507 FILLER_40_85
*1508 FILLER_40_9
*1509 FILLER_40_96
*1510 FILLER_41_107
*1511 FILLER_41_111
*1512 FILLER_41_113
*1513 FILLER_41_122
*1514 FILLER_41_133
*1515 FILLER_41_143
*1516 FILLER_41_155
*1517 FILLER_41_167
*1518 FILLER_41_169
*1519 FILLER_41_181
*1520 FILLER_41_19
*1521 FILLER_41_193
*1522 FILLER_41_205
*1523 FILLER_41_217
*1524 FILLER_41_223
*1525 FILLER_41_225
*1526 FILLER_41_237
*1527 FILLER_41_249
*1528 FILLER_41_261
*1529 FILLER_41_273
*1530 FILLER_41_279
*1531 FILLER_41_281
*1532 FILLER_41_29
*1533 FILLER_41_293
*1534 FILLER_41_3
*1535 FILLER_41_41
*1536 FILLER_41_49
*1537 FILLER_41_54
*1538 FILLER_41_57
*1539 FILLER_41_82
*1540 FILLER_41_89
*1541 FILLER_41_99
*1542 FILLER_42_109
*1543 FILLER_42_122
*1544 FILLER_42_134
*1545 FILLER_42_141
*1546 FILLER_42_153
*1547 FILLER_42_165
*1548 FILLER_42_177
*1549 FILLER_42_189
*1550 FILLER_42_195
*1551 FILLER_42_197
*1552 FILLER_42_209
*1553 FILLER_42_221
*1554 FILLER_42_233
*1555 FILLER_42_245
*1556 FILLER_42_25
*1557 FILLER_42_251
*1558 FILLER_42_253
*1559 FILLER_42_265
*1560 FILLER_42_277
*1561 FILLER_42_289
*1562 FILLER_42_29
*1563 FILLER_42_297
*1564 FILLER_42_3
*1565 FILLER_42_34
*1566 FILLER_42_40
*1567 FILLER_42_44
*1568 FILLER_42_53
*1569 FILLER_42_61
*1570 FILLER_42_70
*1571 FILLER_42_78
*1572 FILLER_42_85
*1573 FILLER_42_9
*1574 FILLER_42_95
*1575 FILLER_43_102
*1576 FILLER_43_110
*1577 FILLER_43_113
*1578 FILLER_43_118
*1579 FILLER_43_125
*1580 FILLER_43_14
*1581 FILLER_43_141
*1582 FILLER_43_153
*1583 FILLER_43_165
*1584 FILLER_43_169
*1585 FILLER_43_181
*1586 FILLER_43_193
*1587 FILLER_43_205
*1588 FILLER_43_21
*1589 FILLER_43_217
*1590 FILLER_43_223
*1591 FILLER_43_225
*1592 FILLER_43_237
*1593 FILLER_43_249
*1594 FILLER_43_261
*1595 FILLER_43_273
*1596 FILLER_43_279