*SPEF "ieee 1481-1999"
*DESIGN "diferential_muxpga"
*DATE "11:11:11 Fri 11 11, 1111"
*VENDOR "OpenRCX"
*PROGRAM "Parallel Extraction"
*VERSION "1.0"
*DESIGN_FLOW "NAME_SCOPE LOCAL" "PIN_CAP NONE"
*DIVIDER /
*DELIMITER :
*BUS_DELIMITER []
*T_UNIT 1 NS
*C_UNIT 1 PF
*R_UNIT 1 OHM
*L_UNIT 1 HENRY

*NAME_MAP
*1 io_in[0]
*2 io_in[1]
*3 io_in[2]
*4 io_in[3]
*5 io_in[4]
*6 io_in[5]
*7 io_in[6]
*8 io_in[7]
*9 io_out[0]
*10 io_out[1]
*11 io_out[2]
*12 io_out[3]
*13 io_out[4]
*14 io_out[5]
*15 io_out[6]
*16 io_out[7]
*19 _0000_
*20 _0001_
*21 _0002_
*22 _0003_
*23 _0004_
*24 _0005_
*25 _0006_
*26 _0007_
*27 _0008_
*28 _0009_
*29 _0010_
*30 _0011_
*31 _0012_
*32 _0013_
*33 _0014_
*34 _0015_
*35 _0016_
*36 _0017_
*37 _0018_
*38 _0019_
*39 _0020_
*40 _0021_
*41 _0022_
*42 _0023_
*43 _0024_
*44 _0025_
*45 _0026_
*46 _0027_
*47 _0028_
*48 _0029_
*49 _0030_
*50 _0031_
*51 _0032_
*52 _0033_
*53 _0034_
*54 _0035_
*55 _0036_
*56 _0037_
*57 _0038_
*58 _0039_
*59 _0040_
*60 _0041_
*61 _0042_
*62 _0043_
*63 _0044_
*64 _0045_
*65 _0046_
*66 _0047_
*67 _0048_
*68 _0049_
*69 _0050_
*70 _0051_
*71 _0052_
*72 _0053_
*73 _0054_
*74 _0055_
*75 _0056_
*76 _0057_
*77 _0058_
*78 _0059_
*79 _0060_
*80 _0061_
*81 _0062_
*82 _0063_
*83 _0064_
*84 _0065_
*85 _0066_
*86 _0067_
*87 _0068_
*88 _0069_
*89 _0070_
*90 _0071_
*91 _0072_
*92 _0073_
*93 _0074_
*94 _0075_
*95 _0076_
*96 _0077_
*97 _0078_
*98 _0079_
*99 _0080_
*100 _0081_
*101 _0082_
*102 _0083_
*103 _0084_
*104 _0085_
*105 _0086_
*106 _0087_
*107 _0088_
*108 _0089_
*109 _0090_
*110 _0091_
*111 _0092_
*112 _0093_
*113 _0094_
*114 _0095_
*115 _0096_
*116 _0097_
*117 _0098_
*118 _0099_
*119 _0100_
*120 _0101_
*121 _0102_
*122 _0103_
*123 _0104_
*124 _0105_
*125 _0106_
*126 _0107_
*127 _0108_
*128 _0109_
*129 _0110_
*130 _0111_
*131 _0112_
*132 _0113_
*133 _0114_
*134 _0115_
*135 _0116_
*136 _0117_
*137 _0118_
*138 _0119_
*139 _0120_
*140 _0121_
*141 _0122_
*142 _0123_
*143 _0124_
*144 _0125_
*145 _0126_
*146 _0127_
*147 _0128_
*148 _0129_
*149 _0130_
*150 _0131_
*151 _0132_
*152 _0133_
*153 _0134_
*154 _0135_
*155 _0136_
*156 _0137_
*157 _0138_
*158 _0139_
*159 _0140_
*160 _0141_
*161 _0142_
*162 _0143_
*163 _0144_
*164 _0145_
*165 _0146_
*166 _0147_
*167 _0148_
*168 _0149_
*169 _0150_
*170 _0151_
*171 _0152_
*172 _0153_
*173 _0154_
*174 _0155_
*175 _0156_
*176 _0157_
*177 _0158_
*178 _0159_
*179 _0160_
*180 _0161_
*181 _0162_
*182 _0163_
*183 _0164_
*184 _0165_
*185 _0166_
*186 _0167_
*187 _0168_
*188 _0169_
*189 _0170_
*190 _0171_
*191 _0172_
*192 _0173_
*193 _0174_
*194 _0175_
*195 _0176_
*196 _0177_
*197 _0178_
*198 _0179_
*199 _0180_
*200 _0181_
*201 _0182_
*202 _0183_
*203 _0184_
*204 _0185_
*205 _0186_
*206 _0187_
*207 _0188_
*208 _0189_
*209 _0190_
*210 _0191_
*211 _0192_
*212 _0193_
*213 _0194_
*214 _0195_
*215 _0196_
*216 _0197_
*217 _0198_
*218 _0199_
*219 _0200_
*220 _0201_
*221 _0202_
*222 _0203_
*223 _0204_
*224 _0205_
*225 _0206_
*226 _0207_
*227 _0208_
*228 _0209_
*229 _0210_
*230 _0211_
*231 _0212_
*232 _0213_
*233 _0214_
*234 _0215_
*235 _0216_
*236 _0217_
*237 _0218_
*238 _0219_
*239 _0220_
*240 _0221_
*241 _0222_
*242 _0223_
*243 _0224_
*244 _0225_
*245 _0226_
*246 _0227_
*247 _0228_
*248 _0229_
*249 _0230_
*250 _0231_
*251 _0232_
*252 _0233_
*253 _0234_
*254 _0235_
*255 _0236_
*256 _0237_
*257 _0238_
*258 _0239_
*259 _0240_
*260 _0241_
*261 _0242_
*262 _0243_
*263 _0244_
*264 _0245_
*265 _0246_
*266 _0247_
*267 _0248_
*268 _0249_
*269 _0250_
*270 _0251_
*271 _0252_
*272 _0253_
*273 _0254_
*274 _0255_
*275 _0256_
*276 _0257_
*277 _0258_
*278 _0259_
*279 _0260_
*280 _0261_
*281 _0262_
*282 _0263_
*283 _0264_
*284 _0265_
*285 _0266_
*286 _0267_
*287 _0268_
*288 _0269_
*289 _0270_
*290 _0271_
*291 _0272_
*292 _0273_
*293 _0274_
*294 _0275_
*295 _0276_
*296 _0277_
*297 _0278_
*298 _0279_
*299 _0280_
*300 _0281_
*301 _0282_
*302 _0283_
*303 _0284_
*304 _0285_
*305 _0286_
*306 _0287_
*307 _0288_
*308 _0289_
*309 _0290_
*310 _0291_
*311 _0292_
*312 _0293_
*313 _0294_
*314 _0295_
*315 _0296_
*316 _0297_
*317 _0298_
*318 _0299_
*319 _0300_
*320 _0301_
*321 _0302_
*322 _0303_
*323 _0304_
*324 _0305_
*325 _0306_
*326 _0307_
*327 _0308_
*328 _0309_
*329 _0310_
*330 _0311_
*331 _0312_
*332 _0313_
*333 _0314_
*334 _0315_
*335 _0316_
*336 _0317_
*337 _0318_
*338 _0319_
*339 _0320_
*340 _0321_
*341 _0322_
*342 _0323_
*343 _0324_
*344 _0325_
*345 _0326_
*346 _0327_
*347 _0328_
*348 _0329_
*349 _0330_
*350 _0331_
*351 _0332_
*352 _0333_
*353 _0334_
*354 _0335_
*355 _0336_
*356 _0337_
*357 _0338_
*358 _0339_
*359 _0340_
*360 _0341_
*361 _0342_
*362 _0343_
*363 _0344_
*364 _0345_
*365 _0346_
*366 _0347_
*367 _0348_
*368 _0349_
*369 _0350_
*370 _0351_
*371 _0352_
*372 _0353_
*373 _0354_
*374 _0355_
*375 _0356_
*376 _0357_
*377 _0358_
*378 _0359_
*379 _0360_
*380 _0361_
*381 _0362_
*382 _0363_
*383 _0364_
*384 _0365_
*385 _0366_
*386 _0367_
*387 _0368_
*388 _0369_
*389 _0370_
*390 _0371_
*391 _0372_
*392 _0373_
*393 _0374_
*394 _0375_
*395 _0376_
*396 _0377_
*397 _0378_
*398 _0379_
*399 _0380_
*400 _0381_
*401 _0382_
*402 _0383_
*403 _0384_
*404 _0385_
*405 _0386_
*406 _0387_
*407 _0388_
*408 _0389_
*409 _0390_
*410 _0391_
*411 _0392_
*412 _0393_
*413 _0394_
*414 _0395_
*415 _0396_
*416 _0397_
*417 _0398_
*418 _0399_
*419 _0400_
*420 _0401_
*421 _0402_
*422 _0403_
*423 _0404_
*424 _0405_
*425 _0406_
*426 _0407_
*427 _0408_
*428 _0409_
*429 _0410_
*430 _0411_
*431 _0412_
*432 _0413_
*433 _0414_
*434 _0415_
*435 _0416_
*436 _0417_
*437 _0418_
*438 _0419_
*439 _0420_
*440 _0421_
*441 _0422_
*442 _0423_
*443 _0424_
*444 _0425_
*445 _0426_
*446 _0427_
*447 _0428_
*448 _0429_
*449 _0430_
*450 _0431_
*451 _0432_
*452 _0433_
*453 _0434_
*454 _0435_
*455 _0436_
*456 _0437_
*457 _0438_
*458 _0439_
*459 _0440_
*460 _0441_
*461 _0442_
*462 _0443_
*463 _0444_
*464 _0445_
*465 _0446_
*466 _0447_
*467 _0448_
*468 _0449_
*469 _0450_
*470 _0451_
*471 _0452_
*472 _0453_
*473 _0454_
*474 _0455_
*475 _0456_
*476 _0457_
*477 _0458_
*478 _0459_
*479 _0460_
*480 _0461_
*481 _0462_
*482 _0463_
*483 _0464_
*484 _0465_
*485 _0466_
*486 _0467_
*487 _0468_
*488 _0469_
*489 _0470_
*490 _0471_
*491 _0472_
*492 _0473_
*493 _0474_
*494 _0475_
*495 _0476_
*496 _0477_
*497 _0478_
*498 _0479_
*499 _0480_
*500 _0481_
*501 _0482_
*502 _0483_
*503 _0484_
*504 _0485_
*505 _0486_
*506 _0487_
*507 _0488_
*508 _0489_
*509 _0490_
*510 _0491_
*511 _0492_
*512 _0493_
*513 _0494_
*514 _0495_
*515 _0496_
*516 _0497_
*517 _0498_
*518 _0499_
*519 _0500_
*520 _0501_
*521 _0502_
*522 _0503_
*523 _0504_
*524 _0505_
*525 _0506_
*526 _0507_
*527 _0508_
*528 _0509_
*529 _0510_
*530 _0511_
*531 _0512_
*532 _0513_
*533 _0514_
*534 _0515_
*535 _0516_
*536 _0517_
*537 _0518_
*538 _0519_
*539 _0520_
*540 _0521_
*541 _0522_
*542 _0523_
*543 _0524_
*544 _0525_
*545 _0526_
*546 _0527_
*547 _0528_
*548 _0529_
*549 _0530_
*550 _0531_
*551 _0532_
*552 _0533_
*553 _0534_
*554 _0535_
*555 _0536_
*556 _0537_
*557 _0538_
*558 _0539_
*559 _0540_
*560 _0541_
*561 _0542_
*562 _0543_
*563 _0544_
*564 _0545_
*565 _0546_
*566 _0547_
*567 _0548_
*568 _0549_
*569 _0550_
*570 _0551_
*571 _0552_
*572 _0553_
*573 _0554_
*574 _0555_
*575 _0556_
*576 _0557_
*577 _0558_
*578 _0559_
*579 _0560_
*580 _0561_
*581 _0562_
*582 _0563_
*583 _0564_
*584 _0565_
*585 _0566_
*586 _0567_
*587 _0568_
*588 _0569_
*589 _0570_
*590 _0571_
*591 _0572_
*592 _0573_
*593 _0574_
*594 _0575_
*595 _0576_
*596 _0577_
*597 _0578_
*598 _0579_
*599 _0580_
*600 _0581_
*601 _0582_
*602 _0583_
*603 _0584_
*604 _0585_
*605 _0586_
*606 _0587_
*607 _0588_
*608 _0589_
*609 _0590_
*610 _0591_
*611 _0592_
*612 _0593_
*613 _0594_
*614 _0595_
*615 _0596_
*616 _0597_
*617 _0598_
*618 _0599_
*619 _0600_
*620 _0601_
*621 _0602_
*622 _0603_
*623 _0604_
*624 _0605_
*625 _0606_
*626 _0607_
*627 _0608_
*628 _0609_
*629 _0610_
*630 _0611_
*631 _0612_
*632 _0613_
*633 _0614_
*634 _0615_
*635 _0616_
*636 _0617_
*637 _0618_
*638 _0619_
*639 _0620_
*640 _0621_
*641 _0622_
*642 _0623_
*643 _0624_
*644 _0625_
*645 _0626_
*646 _0627_
*647 _0628_
*648 _0629_
*649 _0630_
*650 _0631_
*651 _0632_
*652 _0633_
*653 _0634_
*654 _0635_
*655 _0636_
*656 _0637_
*657 _0638_
*658 _0639_
*659 _0640_
*660 _0641_
*661 _0642_
*662 _0643_
*663 _0644_
*664 _0645_
*665 _0646_
*666 _0647_
*667 _0648_
*668 _0649_
*669 _0650_
*670 _0651_
*671 _0652_
*672 _0653_
*673 _0654_
*674 _0655_
*675 _0656_
*676 _0657_
*677 _0658_
*678 _0659_
*679 _0660_
*680 _0661_
*681 _0662_
*682 _0663_
*683 _0664_
*684 _0665_
*685 _0666_
*686 _0667_
*687 _0668_
*688 _0669_
*689 _0670_
*690 _0671_
*691 _0672_
*692 _0673_
*693 _0674_
*694 _0675_
*695 _0676_
*696 _0677_
*697 _0678_
*698 _0679_
*699 _0680_
*700 _0681_
*701 _0682_
*702 _0683_
*703 _0684_
*704 _0685_
*705 _0686_
*706 _0687_
*707 _0688_
*708 _0689_
*709 _0690_
*710 _0691_
*711 _0692_
*712 _0693_
*713 _0694_
*714 _0695_
*715 _0696_
*716 _0697_
*717 _0698_
*718 _0699_
*719 _0700_
*720 _0701_
*721 _0702_
*722 _0703_
*723 _0704_
*724 _0705_
*725 _0706_
*726 _0707_
*727 _0708_
*728 _0709_
*729 _0710_
*730 _0711_
*731 _0712_
*732 _0713_
*733 _0714_
*734 _0715_
*735 _0716_
*736 _0717_
*737 _0718_
*738 _0719_
*739 _0720_
*740 _0721_
*741 _0722_
*742 _0723_
*743 _0724_
*744 _0725_
*745 _0726_
*746 _0727_
*747 _0728_
*748 _0729_
*749 _0730_
*750 _0731_
*751 _0732_
*752 _0733_
*753 _0734_
*754 _0735_
*755 _0736_
*756 _0737_
*757 _0738_
*758 _0739_
*759 _0740_
*760 _0741_
*761 _0742_
*762 _0743_
*763 _0744_
*764 _0745_
*765 _0746_
*766 _0747_
*767 _0748_
*768 _0749_
*769 _0750_
*770 _0751_
*771 _0752_
*772 _0753_
*773 _0754_
*774 _0755_
*775 _0756_
*776 _0757_
*777 _0758_
*778 _0759_
*779 _0760_
*780 _0761_
*781 _0762_
*782 _0763_
*783 _0764_
*784 _0765_
*785 _0766_
*786 _0767_
*787 _0768_
*788 _0769_
*789 _0770_
*790 _0771_
*791 _0772_
*792 _0773_
*793 _0774_
*794 _0775_
*795 _0776_
*796 _0777_
*797 _0778_
*798 _0779_
*799 _0780_
*800 _0781_
*801 _0782_
*802 _0783_
*803 _0784_
*804 _0785_
*805 _0786_
*806 _0787_
*807 _0788_
*808 _0789_
*809 _0790_
*810 _0791_
*811 _0792_
*812 _0793_
*813 _0794_
*814 _0795_
*815 _0796_
*816 _0797_
*817 _0798_
*818 _0799_
*819 _0800_
*820 _0801_
*821 _0802_
*822 _0803_
*823 _0804_
*824 _0805_
*825 _0806_
*826 _0807_
*827 _0808_
*828 _0809_
*829 _0810_
*830 _0811_
*831 _0812_
*832 _0813_
*833 _0814_
*834 _0815_
*835 _0816_
*836 _0817_
*837 _0818_
*838 _0819_
*839 _0820_
*840 _0821_
*841 _0822_
*842 _0823_
*843 _0824_
*844 _0825_
*845 _0826_
*846 _0827_
*847 _0828_
*848 _0829_
*849 _0830_
*850 cell_cfg\[0\]\[0\]
*851 cell_cfg\[0\]\[1\]
*852 cell_cfg\[0\]\[2\]
*853 cell_cfg\[0\]\[3\]
*854 cell_cfg\[10\]\[0\]
*855 cell_cfg\[10\]\[1\]
*856 cell_cfg\[10\]\[2\]
*857 cell_cfg\[10\]\[3\]
*858 cell_cfg\[12\]\[0\]
*859 cell_cfg\[12\]\[1\]
*860 cell_cfg\[12\]\[2\]
*861 cell_cfg\[12\]\[3\]
*862 cell_cfg\[14\]\[0\]
*863 cell_cfg\[14\]\[1\]
*864 cell_cfg\[14\]\[2\]
*865 cell_cfg\[14\]\[3\]
*866 cell_cfg\[16\]\[0\]
*867 cell_cfg\[16\]\[1\]
*868 cell_cfg\[16\]\[2\]
*869 cell_cfg\[16\]\[3\]
*870 cell_cfg\[18\]\[0\]
*871 cell_cfg\[18\]\[1\]
*872 cell_cfg\[18\]\[2\]
*873 cell_cfg\[18\]\[3\]
*874 cell_cfg\[20\]\[0\]
*875 cell_cfg\[20\]\[1\]
*876 cell_cfg\[20\]\[2\]
*877 cell_cfg\[20\]\[3\]
*878 cell_cfg\[22\]\[0\]
*879 cell_cfg\[22\]\[1\]
*880 cell_cfg\[22\]\[2\]
*881 cell_cfg\[22\]\[3\]
*882 cell_cfg\[2\]\[0\]
*883 cell_cfg\[2\]\[1\]
*884 cell_cfg\[2\]\[2\]
*885 cell_cfg\[2\]\[3\]
*886 cell_cfg\[4\]\[0\]
*887 cell_cfg\[4\]\[1\]
*888 cell_cfg\[4\]\[2\]
*889 cell_cfg\[4\]\[3\]
*890 cell_cfg\[6\]\[0\]
*891 cell_cfg\[6\]\[1\]
*892 cell_cfg\[6\]\[2\]
*893 cell_cfg\[6\]\[3\]
*894 cell_cfg\[8\]\[0\]
*895 cell_cfg\[8\]\[1\]
*896 cell_cfg\[8\]\[2\]
*897 cell_cfg\[8\]\[3\]
*898 clknet_0_io_in[0]
*899 clknet_4_0_0_io_in[0]
*900 clknet_4_10_0_io_in[0]
*901 clknet_4_11_0_io_in[0]
*902 clknet_4_12_0_io_in[0]
*903 clknet_4_13_0_io_in[0]
*904 clknet_4_14_0_io_in[0]
*905 clknet_4_15_0_io_in[0]
*906 clknet_4_1_0_io_in[0]
*907 clknet_4_2_0_io_in[0]
*908 clknet_4_3_0_io_in[0]
*909 clknet_4_4_0_io_in[0]
*910 clknet_4_5_0_io_in[0]
*911 clknet_4_6_0_io_in[0]
*912 clknet_4_7_0_io_in[0]
*913 clknet_4_8_0_io_in[0]
*914 clknet_4_9_0_io_in[0]
*915 genblk2\[1\]\.genblk1\[0\]\.genblk1\.c\.cfg\[0\]
*916 genblk2\[1\]\.genblk1\[0\]\.genblk1\.c\.cfg\[1\]
*917 genblk2\[1\]\.genblk1\[0\]\.genblk1\.c\.cfg\[2\]
*918 genblk2\[1\]\.genblk1\[0\]\.genblk1\.c\.cfg\[3\]
*919 genblk2\[1\]\.genblk1\[0\]\.genblk1\.c\.dff\[0\]
*920 genblk2\[1\]\.genblk1\[0\]\.genblk1\.c\.dff\[1\]
*921 genblk2\[1\]\.genblk1\[0\]\.genblk1\.c\.dff\[2\]
*922 genblk2\[1\]\.genblk1\[0\]\.genblk1\.c\.dff\[3\]
*923 genblk2\[1\]\.genblk1\[1\]\.genblk1\.c\.cfg\[0\]
*924 genblk2\[1\]\.genblk1\[1\]\.genblk1\.c\.cfg\[1\]
*925 genblk2\[1\]\.genblk1\[1\]\.genblk1\.c\.cfg\[2\]
*926 genblk2\[1\]\.genblk1\[1\]\.genblk1\.c\.cfg\[3\]
*927 genblk2\[1\]\.genblk1\[1\]\.genblk1\.c\.dff\[0\]
*928 genblk2\[1\]\.genblk1\[1\]\.genblk1\.c\.dff\[1\]
*929 genblk2\[1\]\.genblk1\[1\]\.genblk1\.c\.dff\[2\]
*930 genblk2\[1\]\.genblk1\[1\]\.genblk1\.c\.dff\[3\]
*931 genblk2\[1\]\.genblk1\[2\]\.genblk1\.c\.cfg\[0\]
*932 genblk2\[1\]\.genblk1\[2\]\.genblk1\.c\.cfg\[1\]
*933 genblk2\[1\]\.genblk1\[2\]\.genblk1\.c\.cfg\[2\]
*934 genblk2\[1\]\.genblk1\[2\]\.genblk1\.c\.cfg\[3\]
*935 genblk2\[1\]\.genblk1\[2\]\.genblk1\.c\.dff\[0\]
*936 genblk2\[1\]\.genblk1\[2\]\.genblk1\.c\.dff\[1\]
*937 genblk2\[1\]\.genblk1\[2\]\.genblk1\.c\.dff\[2\]
*938 genblk2\[1\]\.genblk1\[2\]\.genblk1\.c\.dff\[3\]
*939 genblk2\[2\]\.genblk1\[0\]\.genblk1\.c\.cfg\[0\]
*940 genblk2\[2\]\.genblk1\[0\]\.genblk1\.c\.cfg\[1\]
*941 genblk2\[2\]\.genblk1\[0\]\.genblk1\.c\.cfg\[2\]
*942 genblk2\[2\]\.genblk1\[0\]\.genblk1\.c\.cfg\[3\]
*943 genblk2\[2\]\.genblk1\[0\]\.genblk1\.c\.dff\[0\]
*944 genblk2\[2\]\.genblk1\[0\]\.genblk1\.c\.dff\[1\]
*945 genblk2\[2\]\.genblk1\[0\]\.genblk1\.c\.dff\[2\]
*946 genblk2\[2\]\.genblk1\[0\]\.genblk1\.c\.dff\[3\]
*947 genblk2\[2\]\.genblk1\[1\]\.genblk1\.c\.cfg\[0\]
*948 genblk2\[2\]\.genblk1\[1\]\.genblk1\.c\.cfg\[1\]
*949 genblk2\[2\]\.genblk1\[1\]\.genblk1\.c\.cfg\[2\]
*950 genblk2\[2\]\.genblk1\[1\]\.genblk1\.c\.cfg\[3\]
*951 genblk2\[2\]\.genblk1\[1\]\.genblk1\.c\.dff\[0\]
*952 genblk2\[2\]\.genblk1\[1\]\.genblk1\.c\.dff\[1\]
*953 genblk2\[2\]\.genblk1\[1\]\.genblk1\.c\.dff\[2\]
*954 genblk2\[2\]\.genblk1\[1\]\.genblk1\.c\.dff\[3\]
*955 genblk2\[2\]\.genblk1\[2\]\.genblk1\.c\.cfg\[0\]
*956 genblk2\[2\]\.genblk1\[2\]\.genblk1\.c\.cfg\[1\]
*957 genblk2\[2\]\.genblk1\[2\]\.genblk1\.c\.cfg\[2\]
*958 genblk2\[2\]\.genblk1\[2\]\.genblk1\.c\.cfg\[3\]
*959 genblk2\[2\]\.genblk1\[2\]\.genblk1\.c\.dff\[0\]
*960 genblk2\[2\]\.genblk1\[2\]\.genblk1\.c\.dff\[1\]
*961 genblk2\[2\]\.genblk1\[2\]\.genblk1\.c\.dff\[2\]
*962 genblk2\[2\]\.genblk1\[2\]\.genblk1\.c\.dff\[3\]
*963 genblk2\[3\]\.genblk1\[0\]\.genblk1\.c\.cfg\[0\]
*964 genblk2\[3\]\.genblk1\[0\]\.genblk1\.c\.cfg\[1\]
*965 genblk2\[3\]\.genblk1\[0\]\.genblk1\.c\.cfg\[2\]
*966 genblk2\[3\]\.genblk1\[0\]\.genblk1\.c\.cfg\[3\]
*967 genblk2\[3\]\.genblk1\[0\]\.genblk1\.c\.dff\[0\]
*968 genblk2\[3\]\.genblk1\[0\]\.genblk1\.c\.dff\[1\]
*969 genblk2\[3\]\.genblk1\[0\]\.genblk1\.c\.dff\[2\]
*970 genblk2\[3\]\.genblk1\[0\]\.genblk1\.c\.dff\[3\]
*971 genblk2\[3\]\.genblk1\[1\]\.genblk1\.c\.cfg\[0\]
*972 genblk2\[3\]\.genblk1\[1\]\.genblk1\.c\.cfg\[1\]
*973 genblk2\[3\]\.genblk1\[1\]\.genblk1\.c\.cfg\[2\]
*974 genblk2\[3\]\.genblk1\[1\]\.genblk1\.c\.cfg\[3\]
*975 genblk2\[3\]\.genblk1\[1\]\.genblk1\.c\.dff\[0\]
*976 genblk2\[3\]\.genblk1\[1\]\.genblk1\.c\.dff\[1\]
*977 genblk2\[3\]\.genblk1\[1\]\.genblk1\.c\.dff\[2\]
*978 genblk2\[3\]\.genblk1\[1\]\.genblk1\.c\.dff\[3\]
*979 genblk2\[3\]\.genblk1\[2\]\.genblk1\.c\.cfg\[0\]
*980 genblk2\[3\]\.genblk1\[2\]\.genblk1\.c\.cfg\[1\]
*981 genblk2\[3\]\.genblk1\[2\]\.genblk1\.c\.cfg\[2\]
*982 genblk2\[3\]\.genblk1\[2\]\.genblk1\.c\.cfg\[3\]
*983 genblk2\[3\]\.genblk1\[2\]\.genblk1\.c\.dff\[0\]
*984 genblk2\[3\]\.genblk1\[2\]\.genblk1\.c\.dff\[1\]
*985 genblk2\[3\]\.genblk1\[2\]\.genblk1\.c\.dff\[2\]
*986 genblk2\[3\]\.genblk1\[2\]\.genblk1\.c\.dff\[3\]
*987 genblk2\[4\]\.genblk1\[0\]\.genblk1\.c\.cfg\[0\]
*988 genblk2\[4\]\.genblk1\[0\]\.genblk1\.c\.cfg\[1\]
*989 genblk2\[4\]\.genblk1\[0\]\.genblk1\.c\.cfg\[2\]
*990 genblk2\[4\]\.genblk1\[0\]\.genblk1\.c\.cfg\[3\]
*991 genblk2\[4\]\.genblk1\[0\]\.genblk1\.c\.dff\[0\]
*992 genblk2\[4\]\.genblk1\[0\]\.genblk1\.c\.dff\[1\]
*993 genblk2\[4\]\.genblk1\[0\]\.genblk1\.c\.dff\[2\]
*994 genblk2\[4\]\.genblk1\[0\]\.genblk1\.c\.dff\[3\]
*995 genblk2\[4\]\.genblk1\[1\]\.genblk1\.c\.cfg\[0\]
*996 genblk2\[4\]\.genblk1\[1\]\.genblk1\.c\.cfg\[1\]
*997 genblk2\[4\]\.genblk1\[1\]\.genblk1\.c\.cfg\[2\]
*998 genblk2\[4\]\.genblk1\[1\]\.genblk1\.c\.cfg\[3\]
*999 genblk2\[4\]\.genblk1\[1\]\.genblk1\.c\.dff\[0\]
*1000 genblk2\[4\]\.genblk1\[1\]\.genblk1\.c\.dff\[1\]
*1001 genblk2\[4\]\.genblk1\[1\]\.genblk1\.c\.dff\[2\]
*1002 genblk2\[4\]\.genblk1\[1\]\.genblk1\.c\.dff\[3\]
*1003 genblk2\[4\]\.genblk1\[2\]\.genblk1\.c\.cfg\[0\]
*1004 genblk2\[4\]\.genblk1\[2\]\.genblk1\.c\.cfg\[1\]
*1005 genblk2\[4\]\.genblk1\[2\]\.genblk1\.c\.cfg\[2\]
*1006 genblk2\[4\]\.genblk1\[2\]\.genblk1\.c\.cfg\[3\]
*1007 genblk2\[4\]\.genblk1\[2\]\.genblk1\.c\.dff\[0\]
*1008 genblk2\[4\]\.genblk1\[2\]\.genblk1\.c\.dff\[1\]
*1009 genblk2\[4\]\.genblk1\[2\]\.genblk1\.c\.dff\[2\]
*1010 genblk2\[4\]\.genblk1\[2\]\.genblk1\.c\.dff\[3\]
*1011 net1
*1012 net2
*1013 net3
*1014 net4
*1015 net5
*1016 net6
*1017 net7
*1018 ANTENNA_1
*1019 FILLER_0_101
*1020 FILLER_0_110
*1021 FILLER_0_113
*1022 FILLER_0_125
*1023 FILLER_0_13
*1024 FILLER_0_134
*1025 FILLER_0_141
*1026 FILLER_0_148
*1027 FILLER_0_162
*1028 FILLER_0_169
*1029 FILLER_0_181
*1030 FILLER_0_193
*1031 FILLER_0_197
*1032 FILLER_0_209
*1033 FILLER_0_221
*1034 FILLER_0_225
*1035 FILLER_0_237
*1036 FILLER_0_249
*1037 FILLER_0_253
*1038 FILLER_0_26
*1039 FILLER_0_265
*1040 FILLER_0_277
*1041 FILLER_0_281
*1042 FILLER_0_29
*1043 FILLER_0_293
*1044 FILLER_0_3
*1045 FILLER_0_39
*1046 FILLER_0_45
*1047 FILLER_0_54
*1048 FILLER_0_57
*1049 FILLER_0_68
*1050 FILLER_0_80
*1051 FILLER_0_85
*1052 FILLER_0_95
*1053 FILLER_10_108
*1054 FILLER_10_117
*1055 FILLER_10_13
*1056 FILLER_10_137
*1057 FILLER_10_141
*1058 FILLER_10_159
*1059 FILLER_10_168
*1060 FILLER_10_17
*1061 FILLER_10_176
*1062 FILLER_10_186
*1063 FILLER_10_193
*1064 FILLER_10_197
*1065 FILLER_10_209
*1066 FILLER_10_229
*1067 FILLER_10_249
*1068 FILLER_10_253
*1069 FILLER_10_26
*1070 FILLER_10_265
*1071 FILLER_10_277
*1072 FILLER_10_289
*1073 FILLER_10_29
*1074 FILLER_10_297
*1075 FILLER_10_3
*1076 FILLER_10_34
*1077 FILLER_10_46
*1078 FILLER_10_55
*1079 FILLER_10_61
*1080 FILLER_10_66
*1081 FILLER_10_74
*1082 FILLER_10_82
*1083 FILLER_10_85
*1084 FILLER_10_97
*1085 FILLER_11_106
*1086 FILLER_11_113
*1087 FILLER_11_121
*1088 FILLER_11_131
*1089 FILLER_11_135
*1090 FILLER_11_140
*1091 FILLER_11_147
*1092 FILLER_11_155
*1093 FILLER_11_166
*1094 FILLER_11_169
*1095 FILLER_11_180
*1096 FILLER_11_189
*1097 FILLER_11_206
*1098 FILLER_11_215
*1099 FILLER_11_22
*1100 FILLER_11_223
*1101 FILLER_11_225
*1102 FILLER_11_232
*1103 FILLER_11_245
*1104 FILLER_11_253
*1105 FILLER_11_26
*1106 FILLER_11_265
*1107 FILLER_11_277
*1108 FILLER_11_281
*1109 FILLER_11_293
*1110 FILLER_11_3
*1111 FILLER_11_34
*1112 FILLER_11_42
*1113 FILLER_11_50
*1114 FILLER_11_57
*1115 FILLER_11_67
*1116 FILLER_11_78
*1117 FILLER_11_86
*1118 FILLER_11_95
*1119 FILLER_11_99
*1120 FILLER_12_101
*1121 FILLER_12_118
*1122 FILLER_12_12
*1123 FILLER_12_127
*1124 FILLER_12_138
*1125 FILLER_12_141
*1126 FILLER_12_150
*1127 FILLER_12_157
*1128 FILLER_12_168
*1129 FILLER_12_183
*1130 FILLER_12_187
*1131 FILLER_12_194
*1132 FILLER_12_197
*1133 FILLER_12_201
*1134 FILLER_12_207
*1135 FILLER_12_218
*1136 FILLER_12_227
*1137 FILLER_12_236
*1138 FILLER_12_244
*1139 FILLER_12_253
*1140 FILLER_12_26
*1141 FILLER_12_265
*1142 FILLER_12_277
*1143 FILLER_12_289
*1144 FILLER_12_29
*1145 FILLER_12_297
*1146 FILLER_12_3
*1147 FILLER_12_39
*1148 FILLER_12_45
*1149 FILLER_12_53
*1150 FILLER_12_66
*1151 FILLER_12_77
*1152 FILLER_12_83
*1153 FILLER_12_85
*1154 FILLER_12_89
*1155 FILLER_13_106
*1156 FILLER_13_11
*1157 FILLER_13_113
*1158 FILLER_13_131
*1159 FILLER_13_141
*1160 FILLER_13_166
*1161 FILLER_13_169
*1162 FILLER_13_182
*1163 FILLER_13_186
*1164 FILLER_13_19
*1165 FILLER_13_194
*1166 FILLER_13_200
*1167 FILLER_13_222
*1168 FILLER_13_225
*1169 FILLER_13_233
*1170 FILLER_13_242
*1171 FILLER_13_249
*1172 FILLER_13_261
*1173 FILLER_13_273
*1174 FILLER_13_279
*1175 FILLER_13_281
*1176 FILLER_13_293
*1177 FILLER_13_3
*1178 FILLER_13_31
*1179 FILLER_13_43
*1180 FILLER_13_49
*1181 FILLER_13_54
*1182 FILLER_13_57
*1183 FILLER_13_62
*1184 FILLER_13_83
*1185 FILLER_13_87
*1186 FILLER_13_96
*1187 FILLER_14_106
*1188 FILLER_14_117
*1189 FILLER_14_127
*1190 FILLER_14_138
*1191 FILLER_14_141
*1192 FILLER_14_148
*1193 FILLER_14_152
*1194 FILLER_14_157
*1195 FILLER_14_16
*1196 FILLER_14_165
*1197 FILLER_14_190
*1198 FILLER_14_197
*1199 FILLER_14_206
*1200 FILLER_14_221
*1201 FILLER_14_236
*1202 FILLER_14_246
*1203 FILLER_14_25
*1204 FILLER_14_253
*1205 FILLER_14_265
*1206 FILLER_14_277
*1207 FILLER_14_289
*1208 FILLER_14_29
*1209 FILLER_14_297
*1210 FILLER_14_3
*1211 FILLER_14_37
*1212 FILLER_14_45
*1213 FILLER_14_51
*1214 FILLER_14_56
*1215 FILLER_14_64
*1216 FILLER_14_70
*1217 FILLER_14_82
*1218 FILLER_14_85
*1219 FILLER_14_93
*1220 FILLER_14_97
*1221 FILLER_15_101
*1222 FILLER_15_109
*1223 FILLER_15_113
*1224 FILLER_15_123
*1225 FILLER_15_132
*1226 FILLER_15_143
*1227 FILLER_15_153
*1228 FILLER_15_164
*1229 FILLER_15_169
*1230 FILLER_15_174
*1231 FILLER_15_184
*1232 FILLER_15_199
*1233 FILLER_15_208
*1234 FILLER_15_21
*1235 FILLER_15_219
*1236 FILLER_15_223
*1237 FILLER_15_225
*1238 FILLER_15_235
*1239 FILLER_15_243
*1240 FILLER_15_261
*1241 FILLER_15_273
*1242 FILLER_15_279
*1243 FILLER_15_281
*1244 FILLER_15_293
*1245 FILLER_15_3
*1246 FILLER_15_31
*1247 FILLER_15_39
*1248 FILLER_15_48
*1249 FILLER_15_57
*1250 FILLER_15_67
*1251 FILLER_15_76
*1252 FILLER_15_88
*1253 FILLER_16_10
*1254 FILLER_16_107
*1255 FILLER_16_120
*1256 FILLER_16_130
*1257 FILLER_16_138
*1258 FILLER_16_141
*1259 FILLER_16_150
*1260 FILLER_16_158
*1261 FILLER_16_169
*1262 FILLER_16_180
*1263 FILLER_16_191
*1264 FILLER_16_195
*1265 FILLER_16_197
*1266 FILLER_16_206
*1267 FILLER_16_219
*1268 FILLER_16_229
*1269 FILLER_16_238
*1270 FILLER_16_24
*1271 FILLER_16_250
*1272 FILLER_16_253
*1273 FILLER_16_260
*1274 FILLER_16_272
*1275 FILLER_16_284
*1276 FILLER_16_29
*1277 FILLER_16_296
*1278 FILLER_16_3
*1279 FILLER_16_40
*1280 FILLER_16_47
*1281 FILLER_16_60
*1282 FILLER_16_81
*1283 FILLER_16_85
*1284 FILLER_16_93
*1285 FILLER_16_97
*1286 FILLER_17_105
*1287 FILLER_17_111
*1288 FILLER_17_113
*1289 FILLER_17_126
*1290 FILLER_17_13
*1291 FILLER_17_132
*1292 FILLER_17_140
*1293 FILLER_17_150
*1294 FILLER_17_158
*1295 FILLER_17_166
*1296 FILLER_17_169
*1297 FILLER_17_175
*1298 FILLER_17_188
*1299 FILLER_17_19
*1300 FILLER_17_196
*1301 FILLER_17_204
*1302 FILLER_17_214
*1303 FILLER_17_222
*1304 FILLER_17_225
*1305 FILLER_17_248
*1306 FILLER_17_260
*1307 FILLER_17_272
*1308 FILLER_17_28
*1309 FILLER_17_281
*1310 FILLER_17_293
*1311 FILLER_17_3
*1312 FILLER_17_39
*1313 FILLER_17_49
*1314 FILLER_17_55
*1315 FILLER_17_57
*1316 FILLER_17_70
*1317 FILLER_17_83
*1318 FILLER_17_98
*1319 FILLER_18_103
*1320 FILLER_18_113
*1321 FILLER_18_126
*1322 FILLER_18_130
*1323 FILLER_18_138
*1324 FILLER_18_14
*1325 FILLER_18_141
*1326 FILLER_18_152
*1327 FILLER_18_158
*1328 FILLER_18_164
*1329 FILLER_18_168
*1330 FILLER_18_174
*1331 FILLER_18_185
*1332 FILLER_18_193
*1333 FILLER_18_197
*1334 FILLER_18_221
*1335 FILLER_18_230
*1336 FILLER_18_238
*1337 FILLER_18_24
*1338 FILLER_18_248
*1339 FILLER_18_253
*1340 FILLER_18_260
*1341 FILLER_18_272
*1342 FILLER_18_284
*1343 FILLER_18_29
*1344 FILLER_18_296
*1345 FILLER_18_3
*1346 FILLER_18_35
*1347 FILLER_18_45
*1348 FILLER_18_53
*1349 FILLER_18_66
*1350 FILLER_18_77
*1351 FILLER_18_83
*1352 FILLER_18_85
*1353 FILLER_18_9
*1354 FILLER_18_96
*1355 FILLER_19_103
*1356 FILLER_19_110
*1357 FILLER_19_113
*1358 FILLER_19_122
*1359 FILLER_19_131
*1360 FILLER_19_141
*1361 FILLER_19_15
*1362 FILLER_19_166
*1363 FILLER_19_169
*1364 FILLER_19_192
*1365 FILLER_19_217
*1366 FILLER_19_223
*1367 FILLER_19_225
*1368 FILLER_19_234
*1369 FILLER_19_243
*1370 FILLER_19_263
*1371 FILLER_19_27
*1372 FILLER_19_275
*1373 FILLER_19_279
*1374 FILLER_19_281
*1375 FILLER_19_293
*1376 FILLER_19_3
*1377 FILLER_19_37
*1378 FILLER_19_43
*1379 FILLER_19_51
*1380 FILLER_19_55
*1381 FILLER_19_57
*1382 FILLER_19_70
*1383 FILLER_19_82
*1384 FILLER_19_89
*1385 FILLER_1_102
*1386 FILLER_1_109
*1387 FILLER_1_113
*1388 FILLER_1_118
*1389 FILLER_1_139
*1390 FILLER_1_159
*1391 FILLER_1_167
*1392 FILLER_1_169
*1393 FILLER_1_176
*1394 FILLER_1_188
*1395 FILLER_1_200
*1396 FILLER_1_21
*1397 FILLER_1_212
*1398 FILLER_1_225
*1399 FILLER_1_237
*1400 FILLER_1_249
*1401 FILLER_1_261
*1402 FILLER_1_273
*1403 FILLER_1_279
*1404 FILLER_1_281
*1405 FILLER_1_29
*1406 FILLER_1_293
*1407 FILLER_1_3
*1408 FILLER_1_47
*1409 FILLER_1_54
*1410 FILLER_1_57
*1411 FILLER_1_75
*1412 FILLER_1_83
*1413 FILLER_20_107
*1414 FILLER_20_115
*1415 FILLER_20_13
*1416 FILLER_20_133
*1417 FILLER_20_139
*1418 FILLER_20_141
*1419 FILLER_20_164
*1420 FILLER_20_172
*1421 FILLER_20_183
*1422 FILLER_20_19
*1423 FILLER_20_194
*1424 FILLER_20_197
*1425 FILLER_20_210
*1426 FILLER_20_221
*1427 FILLER_20_230
*1428 FILLER_20_241
*1429 FILLER_20_248
*1430 FILLER_20_253
*1431 FILLER_20_26
*1432 FILLER_20_268
*1433 FILLER_20_280
*1434 FILLER_20_29
*1435 FILLER_20_292
*1436 FILLER_20_298
*1437 FILLER_20_3
*1438 FILLER_20_34
*1439 FILLER_20_45
*1440 FILLER_20_56
*1441 FILLER_20_67
*1442 FILLER_20_82
*1443 FILLER_20_85
*1444 FILLER_20_89
*1445 FILLER_20_99
*1446 FILLER_21_110
*1447 FILLER_21_113
*1448 FILLER_21_119
*1449 FILLER_21_123
*1450 FILLER_21_152
*1451 FILLER_21_164
*1452 FILLER_21_169
*1453 FILLER_21_186
*1454 FILLER_21_19
*1455 FILLER_21_194
*1456 FILLER_21_200
*1457 FILLER_21_207
*1458 FILLER_21_219
*1459 FILLER_21_223
*1460 FILLER_21_225
*1461 FILLER_21_233
*1462 FILLER_21_243
*1463 FILLER_21_252
*1464 FILLER_21_259
*1465 FILLER_21_27
*1466 FILLER_21_271
*1467 FILLER_21_279
*1468 FILLER_21_281
*1469 FILLER_21_293
*1470 FILLER_21_3
*1471 FILLER_21_38
*1472 FILLER_21_52
*1473 FILLER_21_57
*1474 FILLER_21_62
*1475 FILLER_21_72
*1476 FILLER_21_76
*1477 FILLER_21_83
*1478 FILLER_21_9
*1479 FILLER_21_91
*1480 FILLER_22_102
*1481 FILLER_22_109
*1482 FILLER_22_115
*1483 FILLER_22_137
*1484 FILLER_22_141
*1485 FILLER_22_148
*1486 FILLER_22_159
*1487 FILLER_22_16
*1488 FILLER_22_168
*1489 FILLER_22_177
*1490 FILLER_22_185
*1491 FILLER_22_194
*1492 FILLER_22_197
*1493 FILLER_22_206
*1494 FILLER_22_215
*1495 FILLER_22_226
*1496 FILLER_22_237
*1497 FILLER_22_24
*1498 FILLER_22_241
*1499 FILLER_22_250
*1500 FILLER_22_253
*1501 FILLER_22_272
*1502 FILLER_22_284
*1503 FILLER_22_29
*1504 FILLER_22_296
*1505 FILLER_22_3
*1506 FILLER_22_40
*1507 FILLER_22_48
*1508 FILLER_22_57
*1509 FILLER_22_69
*1510 FILLER_22_77
*1511 FILLER_22_82
*1512 FILLER_22_85
*1513 FILLER_22_90
*1514 FILLER_23_100
*1515 FILLER_23_108
*1516 FILLER_23_113
*1517 FILLER_23_118
*1518 FILLER_23_125
*1519 FILLER_23_129
*1520 FILLER_23_13
*1521 FILLER_23_151
*1522 FILLER_23_161
*1523 FILLER_23_167
*1524 FILLER_23_169
*1525 FILLER_23_192
*1526 FILLER_23_201
*1527 FILLER_23_208
*1528 FILLER_23_219
*1529 FILLER_23_223
*1530 FILLER_23_225
*1531 FILLER_23_232
*1532 FILLER_23_240
*1533 FILLER_23_246
*1534 FILLER_23_25
*1535 FILLER_23_255
*1536 FILLER_23_263
*1537 FILLER_23_275
*1538 FILLER_23_279
*1539 FILLER_23_281
*1540 FILLER_23_293
*1541 FILLER_23_3
*1542 FILLER_23_38
*1543 FILLER_23_46
*1544 FILLER_23_54
*1545 FILLER_23_57
*1546 FILLER_23_70
*1547 FILLER_23_74
*1548 FILLER_23_79
*1549 FILLER_24_118
*1550 FILLER_24_129
*1551 FILLER_24_138
*1552 FILLER_24_141
*1553 FILLER_24_147
*1554 FILLER_24_155
*1555 FILLER_24_162
*1556 FILLER_24_183
*1557 FILLER_24_19
*1558 FILLER_24_192
*1559 FILLER_24_197
*1560 FILLER_24_216
*1561 FILLER_24_225
*1562 FILLER_24_234
*1563 FILLER_24_250
*1564 FILLER_24_253
*1565 FILLER_24_26
*1566 FILLER_24_272
*1567 FILLER_24_284
*1568 FILLER_24_29
*1569 FILLER_24_296
*1570 FILLER_24_3
*1571 FILLER_24_33
*1572 FILLER_24_51
*1573 FILLER_24_58
*1574 FILLER_24_64
*1575 FILLER_24_82
*1576 FILLER_24_85
*1577 FILLER_24_9
*1578 FILLER_24_95
*1579 FILLER_25_110
*1580 FILLER_25_113
*1581 FILLER_25_121
*1582 FILLER_25_127
*1583 FILLER_25_134
*1584 FILLER_25_147
*1585 FILLER_25_162
*1586 FILLER_25_169
*1587 FILLER_25_176
*1588 FILLER_25_186
*1589 FILLER_25_190
*1590 FILLER_25_194
*1591 FILLER_25_206
*1592 FILLER_25_215
*1593 FILLER_25_222
*1594 FILLER_25_225
*1595 FILLER_25_23
*1596 FILLER_25_244
*1597 FILLER_25_252
*1598 FILLER_25_260
*1599 FILLER_25_267
*1600 FILLER_25_279
*1601 FILLER_25_281
*1602 FILLER_25_293
*1603 FILLER_25_3
*1604 FILLER_25_31
*1605 FILLER_25_40
*1606 FILLER_25_46
*1607 FILLER_25_54
*1608 FILLER_25_57
*1609 FILLER_25_65
*1610 FILLER_25_72
*1611 FILLER_25_82
*1612 FILLER_25_9
*1613 FILLER_25_98
*1614 FILLER_26_112
*1615 FILLER_26_122
*1616 FILLER_26_128
*1617 FILLER_26_137
*1618 FILLER_26_141
*1619 FILLER_26_151
*1620 FILLER_26_155
*1621 FILLER_26_161
*1622 FILLER_26_167
*1623 FILLER_26_173
*1624 FILLER_26_194
*1625 FILLER_26_197
*1626 FILLER_26_202
*1627 FILLER_26_22
*1628 FILLER_26_223
*1629 FILLER_26_231
*1630 FILLER_26_236
*1631 FILLER_26_250
*1632 FILLER_26_253
*1633 FILLER_26_272
*1634 FILLER_26_284
*1635 FILLER_26_29
*1636 FILLER_26_296
*1637 FILLER_26_3
*1638 FILLER_26_39
*1639 FILLER_26_47
*1640 FILLER_26_68
*1641 FILLER_26_78
*1642 FILLER_26_85
*1643 FILLER_26_91
*1644 FILLER_27_106
*1645 FILLER_27_113
*1646 FILLER_27_132
*1647 FILLER_27_141
*1648 FILLER_27_152
*1649 FILLER_27_162
*1650 FILLER_27_169
*1651 FILLER_27_188
*1652 FILLER_27_195
*1653 FILLER_27_204
*1654 FILLER_27_213
*1655 FILLER_27_222
*1656 FILLER_27_225
*1657 FILLER_27_231
*1658 FILLER_27_239
*1659 FILLER_27_248
*1660 FILLER_27_257
*1661 FILLER_27_269
*1662 FILLER_27_27
*1663 FILLER_27_277
*1664 FILLER_27_281
*1665 FILLER_27_293
*1666 FILLER_27_3