*SPEF "ieee 1481-1999"
*DESIGN "diferential_muxpga"
*DATE "11:11:11 Fri 11 11, 1111"
*VENDOR "OpenRCX"
*PROGRAM "Parallel Extraction"
*VERSION "1.0"
*DESIGN_FLOW "NAME_SCOPE LOCAL" "PIN_CAP NONE"
*DIVIDER /
*DELIMITER :
*BUS_DELIMITER []
*T_UNIT 1 NS
*C_UNIT 1 PF
*R_UNIT 1 OHM
*L_UNIT 1 HENRY

*NAME_MAP
*1 io_in[0]
*2 io_in[1]
*3 io_in[2]
*4 io_in[3]
*5 io_in[4]
*6 io_in[5]
*7 io_in[6]
*8 io_in[7]
*9 net8
*10 net9
*11 net10
*12 net11
*13 io_out[4]
*14 io_out[5]
*15 io_out[6]
*16 io_out[7]
*19 _0000_
*20 _0001_
*21 _0002_
*22 _0003_
*23 _0004_
*24 _0005_
*25 _0006_
*26 _0007_
*27 _0008_
*28 _0009_
*29 _0010_
*30 _0011_
*31 _0012_
*32 _0013_
*33 _0014_
*34 _0015_
*35 _0016_
*36 _0017_
*37 _0018_
*38 _0019_
*39 _0020_
*40 _0021_
*41 _0022_
*42 _0023_
*43 _0024_
*44 _0025_
*45 _0026_
*46 _0027_
*47 _0028_
*48 _0029_
*49 _0030_
*50 _0031_
*51 _0032_
*52 _0033_
*53 _0034_
*54 _0035_
*55 _0036_
*56 _0037_
*57 _0038_
*58 _0039_
*59 _0040_
*60 _0041_
*61 _0042_
*62 _0043_
*63 _0044_
*64 _0045_
*65 _0046_
*66 _0047_
*67 _0048_
*68 _0049_
*69 _0050_
*70 _0051_
*71 _0052_
*72 _0053_
*73 _0054_
*74 _0055_
*75 _0056_
*76 _0057_
*77 _0058_
*78 _0059_
*79 _0060_
*80 _0061_
*81 _0062_
*82 _0063_
*83 _0064_
*84 _0065_
*85 _0066_
*86 _0067_
*87 _0068_
*88 _0069_
*89 _0070_
*90 _0071_
*91 _0072_
*92 _0073_
*93 _0074_
*94 _0075_
*95 _0076_
*96 _0077_
*97 _0078_
*98 _0079_
*99 _0080_
*100 _0081_
*101 _0082_
*102 _0083_
*103 _0084_
*104 _0085_
*105 _0086_
*106 _0087_
*107 _0088_
*108 _0089_
*109 _0090_
*110 _0091_
*111 _0092_
*112 _0093_
*113 _0094_
*114 _0095_
*115 _0096_
*116 _0097_
*117 _0098_
*118 _0099_
*119 _0100_
*120 _0101_
*121 _0102_
*122 _0103_
*123 _0104_
*124 _0105_
*125 _0106_
*126 _0107_
*127 _0108_
*128 _0109_
*129 _0110_
*130 _0111_
*131 _0112_
*132 _0113_
*133 _0114_
*134 _0115_
*135 _0116_
*136 _0117_
*137 _0118_
*138 _0119_
*139 _0120_
*140 _0121_
*141 _0122_
*142 _0123_
*143 _0124_
*144 _0125_
*145 _0126_
*146 _0127_
*147 _0128_
*148 _0129_
*149 _0130_
*150 _0131_
*151 _0132_
*152 _0133_
*153 _0134_
*154 _0135_
*155 _0136_
*156 _0137_
*157 _0138_
*158 _0139_
*159 _0140_
*160 _0141_
*161 _0142_
*162 _0143_
*163 _0144_
*164 _0145_
*165 _0146_
*166 _0147_
*167 _0148_
*168 _0149_
*169 _0150_
*170 _0151_
*171 _0152_
*172 _0153_
*173 _0154_
*174 _0155_
*175 _0156_
*176 _0157_
*177 _0158_
*178 _0159_
*179 _0160_
*180 _0161_
*181 _0162_
*182 _0163_
*183 _0164_
*184 _0165_
*185 _0166_
*186 _0167_
*187 _0168_
*188 _0169_
*189 _0170_
*190 _0171_
*191 _0172_
*192 _0173_
*193 _0174_
*194 _0175_
*195 _0176_
*196 _0177_
*197 _0178_
*198 _0179_
*199 _0180_
*200 _0181_
*201 _0182_
*202 _0183_
*203 _0184_
*204 _0185_
*205 _0186_
*206 _0187_
*207 _0188_
*208 _0189_
*209 _0190_
*210 _0191_
*211 _0192_
*212 _0193_
*213 _0194_
*214 _0195_
*215 _0196_
*216 _0197_
*217 _0198_
*218 _0199_
*219 _0200_
*220 _0201_
*221 _0202_
*222 _0203_
*223 _0204_
*224 _0205_
*225 _0206_
*226 _0207_
*227 _0208_
*228 _0209_
*229 _0210_
*230 _0211_
*231 _0212_
*232 _0213_
*233 _0214_
*234 _0215_
*235 _0216_
*236 _0217_
*237 _0218_
*238 _0219_
*239 _0220_
*240 _0221_
*241 _0222_
*242 _0223_
*243 _0224_
*244 _0225_
*245 _0226_
*246 _0227_
*247 _0228_
*248 _0229_
*249 _0230_
*250 _0231_
*251 _0232_
*252 _0233_
*253 _0234_
*254 _0235_
*255 _0236_
*256 _0237_
*257 _0238_
*258 _0239_
*259 _0240_
*260 _0241_
*261 _0242_
*262 _0243_
*263 _0244_
*264 _0245_
*265 _0246_
*266 _0247_
*267 _0248_
*268 _0249_
*269 _0250_
*270 _0251_
*271 _0252_
*272 _0253_
*273 _0254_
*274 _0255_
*275 _0256_
*276 _0257_
*277 _0258_
*278 _0259_
*279 _0260_
*280 _0261_
*281 _0262_
*282 _0263_
*283 _0264_
*284 _0265_
*285 _0266_
*286 _0267_
*287 _0268_
*288 _0269_
*289 _0270_
*290 _0271_
*291 _0272_
*292 _0273_
*293 _0274_
*294 _0275_
*295 _0276_
*296 _0277_
*297 _0278_
*298 _0279_
*299 _0280_
*300 _0281_
*301 _0282_
*302 _0283_
*303 _0284_
*304 _0285_
*305 _0286_
*306 _0287_
*307 _0288_
*308 _0289_
*309 _0290_
*310 _0291_
*311 _0292_
*312 _0293_
*313 _0294_
*314 _0295_
*315 _0296_
*316 _0297_
*317 _0298_
*318 _0299_
*319 _0300_
*320 _0301_
*321 _0302_
*322 _0303_
*323 _0304_
*324 _0305_
*325 _0306_
*326 _0307_
*327 _0308_
*328 _0309_
*329 _0310_
*330 _0311_
*331 _0312_
*332 _0313_
*333 _0314_
*334 _0315_
*335 _0316_
*336 _0317_
*337 _0318_
*338 _0319_
*339 _0320_
*340 _0321_
*341 _0322_
*342 _0323_
*343 _0324_
*344 _0325_
*345 _0326_
*346 _0327_
*347 _0328_
*348 _0329_
*349 _0330_
*350 _0331_
*351 _0332_
*352 _0333_
*353 _0334_
*354 _0335_
*355 _0336_
*356 _0337_
*357 _0338_
*358 _0339_
*359 _0340_
*360 _0341_
*361 _0342_
*362 _0343_
*363 _0344_
*364 _0345_
*365 _0346_
*366 _0347_
*367 _0348_
*368 _0349_
*369 _0350_
*370 _0351_
*371 _0352_
*372 _0353_
*373 _0354_
*374 _0355_
*375 _0356_
*376 _0357_
*377 _0358_
*378 _0359_
*379 _0360_
*380 _0361_
*381 _0362_
*382 _0363_
*383 _0364_
*384 _0365_
*385 _0366_
*386 _0367_
*387 _0368_
*388 _0369_
*389 _0370_
*390 _0371_
*391 _0372_
*392 _0373_
*393 _0374_
*394 _0375_
*395 _0376_
*396 _0377_
*397 _0378_
*398 _0379_
*399 _0380_
*400 _0381_
*401 _0382_
*402 _0383_
*403 _0384_
*404 _0385_
*405 _0386_
*406 _0387_
*407 _0388_
*408 _0389_
*409 _0390_
*410 _0391_
*411 _0392_
*412 _0393_
*413 _0394_
*414 _0395_
*415 _0396_
*416 _0397_
*417 _0398_
*418 _0399_
*419 _0400_
*420 _0401_
*421 _0402_
*422 _0403_
*423 _0404_
*424 _0405_
*425 _0406_
*426 _0407_
*427 _0408_
*428 _0409_
*429 _0410_
*430 _0411_
*431 _0412_
*432 _0413_
*433 _0414_
*434 _0415_
*435 _0416_
*436 _0417_
*437 _0418_
*438 _0419_
*439 _0420_
*440 _0421_
*441 _0422_
*442 _0423_
*443 _0424_
*444 _0425_
*445 _0426_
*446 _0427_
*447 _0428_
*448 _0429_
*449 _0430_
*450 _0431_
*451 _0432_
*452 _0433_
*453 _0434_
*454 _0435_
*455 _0436_
*456 _0437_
*457 _0438_
*458 _0439_
*459 _0440_
*460 _0441_
*461 _0442_
*462 _0443_
*463 _0444_
*464 _0445_
*465 _0446_
*466 _0447_
*467 _0448_
*468 _0449_
*469 _0450_
*470 _0451_
*471 _0452_
*472 _0453_
*473 _0454_
*474 _0455_
*475 _0456_
*476 _0457_
*477 _0458_
*478 _0459_
*479 _0460_
*480 _0461_
*481 _0462_
*482 _0463_
*483 _0464_
*484 _0465_
*485 _0466_
*486 _0467_
*487 _0468_
*488 _0469_
*489 _0470_
*490 _0471_
*491 _0472_
*492 _0473_
*493 _0474_
*494 _0475_
*495 _0476_
*496 _0477_
*497 _0478_
*498 _0479_
*499 _0480_
*500 _0481_
*501 _0482_
*502 _0483_
*503 _0484_
*504 _0485_
*505 _0486_
*506 _0487_
*507 _0488_
*508 _0489_
*509 _0490_
*510 _0491_
*511 _0492_
*512 _0493_
*513 _0494_
*514 _0495_
*515 _0496_
*516 _0497_
*517 _0498_
*518 _0499_
*519 _0500_
*520 _0501_
*521 _0502_
*522 _0503_
*523 _0504_
*524 _0505_
*525 _0506_
*526 _0507_
*527 _0508_
*528 _0509_
*529 _0510_
*530 _0511_
*531 _0512_
*532 _0513_
*533 _0514_
*534 _0515_
*535 _0516_
*536 _0517_
*537 _0518_
*538 _0519_
*539 _0520_
*540 _0521_
*541 _0522_
*542 _0523_
*543 _0524_
*544 _0525_
*545 _0526_
*546 _0527_
*547 _0528_
*548 _0529_
*549 _0530_
*550 _0531_
*551 _0532_
*552 _0533_
*553 _0534_
*554 _0535_
*555 _0536_
*556 _0537_
*557 _0538_
*558 _0539_
*559 _0540_
*560 _0541_
*561 _0542_
*562 _0543_
*563 _0544_
*564 _0545_
*565 _0546_
*566 _0547_
*567 _0548_
*568 _0549_
*569 _0550_
*570 _0551_
*571 _0552_
*572 _0553_
*573 _0554_
*574 _0555_
*575 _0556_
*576 _0557_
*577 _0558_
*578 _0559_
*579 _0560_
*580 _0561_
*581 _0562_
*582 _0563_
*583 _0564_
*584 _0565_
*585 _0566_
*586 _0567_
*587 _0568_
*588 _0569_
*589 _0570_
*590 _0571_
*591 _0572_
*592 _0573_
*593 _0574_
*594 _0575_
*595 _0576_
*596 _0577_
*597 _0578_
*598 _0579_
*599 _0580_
*600 _0581_
*601 _0582_
*602 _0583_
*603 _0584_
*604 _0585_
*605 _0586_
*606 _0587_
*607 _0588_
*608 _0589_
*609 _0590_
*610 _0591_
*611 _0592_
*612 _0593_
*613 _0594_
*614 _0595_
*615 _0596_
*616 _0597_
*617 _0598_
*618 _0599_
*619 _0600_
*620 _0601_
*621 _0602_
*622 _0603_
*623 _0604_
*624 _0605_
*625 _0606_
*626 _0607_
*627 _0608_
*628 _0609_
*629 _0610_
*630 _0611_
*631 _0612_
*632 _0613_
*633 _0614_
*634 _0615_
*635 _0616_
*636 _0617_
*637 _0618_
*638 _0619_
*639 _0620_
*640 _0621_
*641 _0622_
*642 _0623_
*643 _0624_
*644 _0625_
*645 _0626_
*646 _0627_
*647 _0628_
*648 _0629_
*649 _0630_
*650 _0631_
*651 _0632_
*652 _0633_
*653 _0634_
*654 _0635_
*655 _0636_
*656 _0637_
*657 _0638_
*658 _0639_
*659 _0640_
*660 _0641_
*661 _0642_
*662 _0643_
*663 _0644_
*664 _0645_
*665 _0646_
*666 _0647_
*667 _0648_
*668 _0649_
*669 _0650_
*670 _0651_
*671 _0652_
*672 _0653_
*673 _0654_
*674 _0655_
*675 _0656_
*676 _0657_
*677 _0658_
*678 _0659_
*679 _0660_
*680 _0661_
*681 _0662_
*682 _0663_
*683 _0664_
*684 _0665_
*685 _0666_
*686 _0667_
*687 _0668_
*688 _0669_
*689 _0670_
*690 _0671_
*691 _0672_
*692 _0673_
*693 _0674_
*694 _0675_
*695 _0676_
*696 _0677_
*697 _0678_
*698 _0679_
*699 _0680_
*700 _0681_
*701 _0682_
*702 _0683_
*703 _0684_
*704 _0685_
*705 _0686_
*706 _0687_
*707 _0688_
*708 _0689_
*709 _0690_
*710 _0691_
*711 _0692_
*712 _0693_
*713 _0694_
*714 _0695_
*715 _0696_
*716 _0697_
*717 _0698_
*718 _0699_
*719 _0700_
*720 _0701_
*721 _0702_
*722 _0703_
*723 _0704_
*724 _0705_
*725 _0706_
*726 _0707_
*727 _0708_
*728 _0709_
*729 _0710_
*730 _0711_
*731 _0712_
*732 _0713_
*733 _0714_
*734 _0715_
*735 _0716_
*736 _0717_
*737 _0718_
*738 _0719_
*739 _0720_
*740 _0721_
*741 _0722_
*742 _0723_
*743 _0724_
*744 _0725_
*745 _0726_
*746 _0727_
*747 _0728_
*748 _0729_
*749 _0730_
*750 _0731_
*751 _0732_
*752 _0733_
*753 _0734_
*754 _0735_
*755 _0736_
*756 _0737_
*757 _0738_
*758 _0739_
*759 _0740_
*760 _0741_
*761 _0742_
*762 _0743_
*763 _0744_
*764 _0745_
*765 _0746_
*766 _0747_
*767 clknet_0_io_in[0]
*768 clknet_4_0_0_io_in[0]
*769 clknet_4_10_0_io_in[0]
*770 clknet_4_11_0_io_in[0]
*771 clknet_4_12_0_io_in[0]
*772 clknet_4_13_0_io_in[0]
*773 clknet_4_14_0_io_in[0]
*774 clknet_4_15_0_io_in[0]
*775 clknet_4_1_0_io_in[0]
*776 clknet_4_2_0_io_in[0]
*777 clknet_4_3_0_io_in[0]
*778 clknet_4_4_0_io_in[0]
*779 clknet_4_5_0_io_in[0]
*780 clknet_4_6_0_io_in[0]
*781 clknet_4_7_0_io_in[0]
*782 clknet_4_8_0_io_in[0]
*783 clknet_4_9_0_io_in[0]
*784 genrow\[1\]\.gencol\[0\]\.genblk1\.c\.cfg\[0\]
*785 genrow\[1\]\.gencol\[0\]\.genblk1\.c\.cfg\[1\]
*786 genrow\[1\]\.gencol\[0\]\.genblk1\.c\.en
*787 genrow\[1\]\.gencol\[0\]\.genblk1\.c\.f_out_en
*788 genrow\[1\]\.gencol\[0\]\.genblk1\.c\.left_q\[0\]
*789 genrow\[1\]\.gencol\[0\]\.genblk1\.c\.left_q\[1\]
*790 genrow\[1\]\.gencol\[0\]\.genblk1\.c\.mux\[0\]
*791 genrow\[1\]\.gencol\[0\]\.genblk1\.c\.mux\[1\]
*792 genrow\[1\]\.gencol\[0\]\.genblk1\.c\.q\[0\]
*793 genrow\[1\]\.gencol\[0\]\.genblk1\.c\.q\[1\]
*794 genrow\[1\]\.gencol\[0\]\.genblk1\.inmux1\.cell_q\[0\]
*795 genrow\[1\]\.gencol\[0\]\.genblk1\.inmux1\.cell_q\[10\]
*796 genrow\[1\]\.gencol\[0\]\.genblk1\.inmux1\.cell_q\[11\]
*797 genrow\[1\]\.gencol\[0\]\.genblk1\.inmux1\.cell_q\[12\]
*798 genrow\[1\]\.gencol\[0\]\.genblk1\.inmux1\.cell_q\[13\]
*799 genrow\[1\]\.gencol\[0\]\.genblk1\.inmux1\.cell_q\[14\]
*800 genrow\[1\]\.gencol\[0\]\.genblk1\.inmux1\.cell_q\[15\]
*801 genrow\[1\]\.gencol\[0\]\.genblk1\.inmux1\.cell_q\[16\]
*802 genrow\[1\]\.gencol\[0\]\.genblk1\.inmux1\.cell_q\[17\]
*803 genrow\[1\]\.gencol\[0\]\.genblk1\.inmux1\.cell_q\[18\]
*804 genrow\[1\]\.gencol\[0\]\.genblk1\.inmux1\.cell_q\[19\]
*805 genrow\[1\]\.gencol\[0\]\.genblk1\.inmux1\.cell_q\[1\]
*806 genrow\[1\]\.gencol\[0\]\.genblk1\.inmux1\.cell_q\[20\]
*807 genrow\[1\]\.gencol\[0\]\.genblk1\.inmux1\.cell_q\[21\]
*808 genrow\[1\]\.gencol\[0\]\.genblk1\.inmux1\.cell_q\[22\]
*809 genrow\[1\]\.gencol\[0\]\.genblk1\.inmux1\.cell_q\[23\]
*810 genrow\[1\]\.gencol\[0\]\.genblk1\.inmux1\.cell_q\[24\]
*811 genrow\[1\]\.gencol\[0\]\.genblk1\.inmux1\.cell_q\[25\]
*812 genrow\[1\]\.gencol\[0\]\.genblk1\.inmux1\.cell_q\[26\]
*813 genrow\[1\]\.gencol\[0\]\.genblk1\.inmux1\.cell_q\[27\]
*814 genrow\[1\]\.gencol\[0\]\.genblk1\.inmux1\.cell_q\[28\]
*815 genrow\[1\]\.gencol\[0\]\.genblk1\.inmux1\.cell_q\[29\]
*816 genrow\[1\]\.gencol\[0\]\.genblk1\.inmux1\.cell_q\[2\]
*817 genrow\[1\]\.gencol\[0\]\.genblk1\.inmux1\.cell_q\[30\]
*818 genrow\[1\]\.gencol\[0\]\.genblk1\.inmux1\.cell_q\[31\]
*819 genrow\[1\]\.gencol\[0\]\.genblk1\.inmux1\.cell_q\[32\]
*820 genrow\[1\]\.gencol\[0\]\.genblk1\.inmux1\.cell_q\[33\]
*821 genrow\[1\]\.gencol\[0\]\.genblk1\.inmux1\.cell_q\[34\]
*822 genrow\[1\]\.gencol\[0\]\.genblk1\.inmux1\.cell_q\[35\]
*823 genrow\[1\]\.gencol\[0\]\.genblk1\.inmux1\.cell_q\[36\]
*824 genrow\[1\]\.gencol\[0\]\.genblk1\.inmux1\.cell_q\[37\]
*825 genrow\[1\]\.gencol\[0\]\.genblk1\.inmux1\.cell_q\[38\]
*826 genrow\[1\]\.gencol\[0\]\.genblk1\.inmux1\.cell_q\[39\]
*827 genrow\[1\]\.gencol\[0\]\.genblk1\.inmux1\.cell_q\[3\]
*828 genrow\[1\]\.gencol\[0\]\.genblk1\.inmux1\.cell_q\[40\]
*829 genrow\[1\]\.gencol\[0\]\.genblk1\.inmux1\.cell_q\[41\]
*830 genrow\[1\]\.gencol\[0\]\.genblk1\.inmux1\.cell_q\[42\]
*831 genrow\[1\]\.gencol\[0\]\.genblk1\.inmux1\.cell_q\[43\]
*832 genrow\[1\]\.gencol\[0\]\.genblk1\.inmux1\.cell_q\[44\]
*833 genrow\[1\]\.gencol\[0\]\.genblk1\.inmux1\.cell_q\[45\]
*834 genrow\[1\]\.gencol\[0\]\.genblk1\.inmux1\.cell_q\[46\]
*835 genrow\[1\]\.gencol\[0\]\.genblk1\.inmux1\.cell_q\[47\]
*836 genrow\[1\]\.gencol\[0\]\.genblk1\.inmux1\.cell_q\[48\]
*837 genrow\[1\]\.gencol\[0\]\.genblk1\.inmux1\.cell_q\[49\]
*838 genrow\[1\]\.gencol\[0\]\.genblk1\.inmux1\.cell_q\[4\]
*839 genrow\[1\]\.gencol\[0\]\.genblk1\.inmux1\.cell_q\[50\]
*840 genrow\[1\]\.gencol\[0\]\.genblk1\.inmux1\.cell_q\[51\]
*841 genrow\[1\]\.gencol\[0\]\.genblk1\.inmux1\.cell_q\[52\]
*842 genrow\[1\]\.gencol\[0\]\.genblk1\.inmux1\.cell_q\[53\]
*843 genrow\[1\]\.gencol\[0\]\.genblk1\.inmux1\.cell_q\[54\]
*844 genrow\[1\]\.gencol\[0\]\.genblk1\.inmux1\.cell_q\[55\]
*845 genrow\[1\]\.gencol\[0\]\.genblk1\.inmux1\.cell_q\[56\]
*846 genrow\[1\]\.gencol\[0\]\.genblk1\.inmux1\.cell_q\[57\]
*847 genrow\[1\]\.gencol\[0\]\.genblk1\.inmux1\.cell_q\[58\]
*848 genrow\[1\]\.gencol\[0\]\.genblk1\.inmux1\.cell_q\[59\]
*849 genrow\[1\]\.gencol\[0\]\.genblk1\.inmux1\.cell_q\[5\]
*850 genrow\[1\]\.gencol\[0\]\.genblk1\.inmux1\.cell_q\[62\]
*851 genrow\[1\]\.gencol\[0\]\.genblk1\.inmux1\.cell_q\[63\]
*852 genrow\[1\]\.gencol\[0\]\.genblk1\.inmux1\.cell_q\[64\]
*853 genrow\[1\]\.gencol\[0\]\.genblk1\.inmux1\.cell_q\[65\]
*854 genrow\[1\]\.gencol\[0\]\.genblk1\.inmux1\.cell_q\[66\]
*855 genrow\[1\]\.gencol\[0\]\.genblk1\.inmux1\.cell_q\[67\]
*856 genrow\[1\]\.gencol\[0\]\.genblk1\.inmux1\.cell_q\[68\]
*857 genrow\[1\]\.gencol\[0\]\.genblk1\.inmux1\.cell_q\[69\]
*858 genrow\[1\]\.gencol\[0\]\.genblk1\.inmux1\.cell_q\[6\]
*859 genrow\[1\]\.gencol\[0\]\.genblk1\.inmux1\.cell_q\[7\]
*860 genrow\[1\]\.gencol\[0\]\.genblk1\.inmux1\.cell_q\[8\]
*861 genrow\[1\]\.gencol\[0\]\.genblk1\.inmux1\.cell_q\[9\]
*862 genrow\[1\]\.gencol\[1\]\.genblk1\.c\.cfg\[0\]
*863 genrow\[1\]\.gencol\[1\]\.genblk1\.c\.cfg\[1\]
*864 genrow\[1\]\.gencol\[1\]\.genblk1\.c\.f_out_en
*865 genrow\[1\]\.gencol\[1\]\.genblk1\.c\.mux\[0\]
*866 genrow\[1\]\.gencol\[1\]\.genblk1\.c\.mux\[1\]
*867 genrow\[1\]\.gencol\[2\]\.genblk1\.c\.cfg\[0\]
*868 genrow\[1\]\.gencol\[2\]\.genblk1\.c\.cfg\[1\]
*869 genrow\[1\]\.gencol\[2\]\.genblk1\.c\.f_out_en
*870 genrow\[1\]\.gencol\[2\]\.genblk1\.c\.mux\[0\]
*871 genrow\[1\]\.gencol\[2\]\.genblk1\.c\.mux\[1\]
*872 genrow\[1\]\.gencol\[3\]\.genblk1\.c\.cfg\[0\]
*873 genrow\[1\]\.gencol\[3\]\.genblk1\.c\.cfg\[1\]
*874 genrow\[1\]\.gencol\[3\]\.genblk1\.c\.f_out_en
*875 genrow\[1\]\.gencol\[3\]\.genblk1\.c\.mux\[0\]
*876 genrow\[1\]\.gencol\[3\]\.genblk1\.c\.mux\[1\]
*877 genrow\[1\]\.gencol\[4\]\.genblk1\.c\.cfg\[0\]
*878 genrow\[1\]\.gencol\[4\]\.genblk1\.c\.cfg\[1\]
*879 genrow\[1\]\.gencol\[4\]\.genblk1\.c\.f_out_en
*880 genrow\[1\]\.gencol\[4\]\.genblk1\.c\.mux\[0\]
*881 genrow\[1\]\.gencol\[4\]\.genblk1\.c\.mux\[1\]
*882 genrow\[1\]\.gencol\[5\]\.genblk1\.c\.cfg\[0\]
*883 genrow\[1\]\.gencol\[5\]\.genblk1\.c\.cfg\[1\]
*884 genrow\[1\]\.gencol\[5\]\.genblk1\.c\.f_out_en
*885 genrow\[1\]\.gencol\[5\]\.genblk1\.c\.mux\[0\]
*886 genrow\[1\]\.gencol\[5\]\.genblk1\.c\.mux\[1\]
*887 genrow\[2\]\.gencol\[0\]\.genblk1\.c\.cfg\[0\]
*888 genrow\[2\]\.gencol\[0\]\.genblk1\.c\.cfg\[1\]
*889 genrow\[2\]\.gencol\[0\]\.genblk1\.c\.f_out_en
*890 genrow\[2\]\.gencol\[0\]\.genblk1\.c\.mux\[0\]
*891 genrow\[2\]\.gencol\[0\]\.genblk1\.c\.mux\[1\]
*892 genrow\[2\]\.gencol\[1\]\.genblk1\.c\.cfg\[0\]
*893 genrow\[2\]\.gencol\[1\]\.genblk1\.c\.cfg\[1\]
*894 genrow\[2\]\.gencol\[1\]\.genblk1\.c\.f_out_en
*895 genrow\[2\]\.gencol\[1\]\.genblk1\.c\.mux\[0\]
*896 genrow\[2\]\.gencol\[1\]\.genblk1\.c\.mux\[1\]
*897 genrow\[2\]\.gencol\[2\]\.genblk1\.c\.cfg\[0\]
*898 genrow\[2\]\.gencol\[2\]\.genblk1\.c\.cfg\[1\]
*899 genrow\[2\]\.gencol\[2\]\.genblk1\.c\.f_out_en
*900 genrow\[2\]\.gencol\[2\]\.genblk1\.c\.mux\[0\]
*901 genrow\[2\]\.gencol\[2\]\.genblk1\.c\.mux\[1\]
*902 genrow\[2\]\.gencol\[3\]\.genblk1\.c\.cfg\[0\]
*903 genrow\[2\]\.gencol\[3\]\.genblk1\.c\.cfg\[1\]
*904 genrow\[2\]\.gencol\[3\]\.genblk1\.c\.f_out_en
*905 genrow\[2\]\.gencol\[3\]\.genblk1\.c\.mux\[0\]
*906 genrow\[2\]\.gencol\[3\]\.genblk1\.c\.mux\[1\]
*907 genrow\[2\]\.gencol\[4\]\.genblk1\.c\.cfg\[0\]
*908 genrow\[2\]\.gencol\[4\]\.genblk1\.c\.cfg\[1\]
*909 genrow\[2\]\.gencol\[4\]\.genblk1\.c\.f_out_en
*910 genrow\[2\]\.gencol\[4\]\.genblk1\.c\.mux\[0\]
*911 genrow\[2\]\.gencol\[4\]\.genblk1\.c\.mux\[1\]
*912 genrow\[2\]\.gencol\[5\]\.genblk1\.c\.cfg\[0\]
*913 genrow\[2\]\.gencol\[5\]\.genblk1\.c\.cfg\[1\]
*914 genrow\[2\]\.gencol\[5\]\.genblk1\.c\.f_out_en
*915 genrow\[2\]\.gencol\[5\]\.genblk1\.c\.mux\[0\]
*916 genrow\[2\]\.gencol\[5\]\.genblk1\.c\.mux\[1\]
*917 genrow\[3\]\.gencol\[0\]\.genblk1\.c\.cfg\[0\]
*918 genrow\[3\]\.gencol\[0\]\.genblk1\.c\.cfg\[1\]
*919 genrow\[3\]\.gencol\[0\]\.genblk1\.c\.f_out_en
*920 genrow\[3\]\.gencol\[0\]\.genblk1\.c\.mux\[0\]
*921 genrow\[3\]\.gencol\[0\]\.genblk1\.c\.mux\[1\]
*922 genrow\[3\]\.gencol\[1\]\.genblk1\.c\.cfg\[0\]
*923 genrow\[3\]\.gencol\[1\]\.genblk1\.c\.cfg\[1\]
*924 genrow\[3\]\.gencol\[1\]\.genblk1\.c\.f_out_en
*925 genrow\[3\]\.gencol\[1\]\.genblk1\.c\.mux\[0\]
*926 genrow\[3\]\.gencol\[1\]\.genblk1\.c\.mux\[1\]
*927 genrow\[3\]\.gencol\[2\]\.genblk1\.c\.cfg\[0\]
*928 genrow\[3\]\.gencol\[2\]\.genblk1\.c\.cfg\[1\]
*929 genrow\[3\]\.gencol\[2\]\.genblk1\.c\.f_out_en
*930 genrow\[3\]\.gencol\[2\]\.genblk1\.c\.mux\[0\]
*931 genrow\[3\]\.gencol\[2\]\.genblk1\.c\.mux\[1\]
*932 genrow\[3\]\.gencol\[3\]\.genblk1\.c\.cfg\[0\]
*933 genrow\[3\]\.gencol\[3\]\.genblk1\.c\.cfg\[1\]
*934 genrow\[3\]\.gencol\[3\]\.genblk1\.c\.f_out_en
*935 genrow\[3\]\.gencol\[3\]\.genblk1\.c\.mux\[0\]
*936 genrow\[3\]\.gencol\[3\]\.genblk1\.c\.mux\[1\]
*937 genrow\[3\]\.gencol\[4\]\.genblk1\.c\.cfg\[0\]
*938 genrow\[3\]\.gencol\[4\]\.genblk1\.c\.cfg\[1\]
*939 genrow\[3\]\.gencol\[4\]\.genblk1\.c\.f_out_en
*940 genrow\[3\]\.gencol\[4\]\.genblk1\.c\.mux\[0\]
*941 genrow\[3\]\.gencol\[4\]\.genblk1\.c\.mux\[1\]
*942 genrow\[3\]\.gencol\[5\]\.genblk1\.c\.cfg\[0\]
*943 genrow\[3\]\.gencol\[5\]\.genblk1\.c\.cfg\[1\]
*944 genrow\[3\]\.gencol\[5\]\.genblk1\.c\.f_out_en
*945 genrow\[3\]\.gencol\[5\]\.genblk1\.c\.mux\[0\]
*946 genrow\[3\]\.gencol\[5\]\.genblk1\.c\.mux\[1\]
*947 genrow\[4\]\.gencol\[0\]\.genblk1\.c\.cfg\[0\]
*948 genrow\[4\]\.gencol\[0\]\.genblk1\.c\.cfg\[1\]
*949 genrow\[4\]\.gencol\[0\]\.genblk1\.c\.f_out_en
*950 genrow\[4\]\.gencol\[0\]\.genblk1\.c\.mux\[0\]
*951 genrow\[4\]\.gencol\[0\]\.genblk1\.c\.mux\[1\]
*952 genrow\[4\]\.gencol\[1\]\.genblk1\.c\.cfg\[0\]
*953 genrow\[4\]\.gencol\[1\]\.genblk1\.c\.cfg\[1\]
*954 genrow\[4\]\.gencol\[1\]\.genblk1\.c\.f_out_en
*955 genrow\[4\]\.gencol\[1\]\.genblk1\.c\.mux\[0\]
*956 genrow\[4\]\.gencol\[1\]\.genblk1\.c\.mux\[1\]
*957 genrow\[4\]\.gencol\[2\]\.genblk1\.c\.cfg\[0\]
*958 genrow\[4\]\.gencol\[2\]\.genblk1\.c\.cfg\[1\]
*959 genrow\[4\]\.gencol\[2\]\.genblk1\.c\.f_out_en
*960 genrow\[4\]\.gencol\[2\]\.genblk1\.c\.mux\[0\]
*961 genrow\[4\]\.gencol\[2\]\.genblk1\.c\.mux\[1\]
*962 genrow\[4\]\.gencol\[3\]\.genblk1\.c\.cfg\[0\]
*963 genrow\[4\]\.gencol\[3\]\.genblk1\.c\.cfg\[1\]
*964 genrow\[4\]\.gencol\[3\]\.genblk1\.c\.f_out_en
*965 genrow\[4\]\.gencol\[3\]\.genblk1\.c\.mux\[0\]
*966 genrow\[4\]\.gencol\[3\]\.genblk1\.c\.mux\[1\]
*967 genrow\[4\]\.gencol\[4\]\.genblk1\.c\.cfg\[0\]
*968 genrow\[4\]\.gencol\[4\]\.genblk1\.c\.cfg\[1\]
*969 genrow\[4\]\.gencol\[4\]\.genblk1\.c\.f_out_en
*970 genrow\[4\]\.gencol\[4\]\.genblk1\.c\.mux\[0\]
*971 genrow\[4\]\.gencol\[4\]\.genblk1\.c\.mux\[1\]
*972 genrow\[4\]\.gencol\[5\]\.genblk1\.c\.cfg\[0\]
*973 genrow\[4\]\.gencol\[5\]\.genblk1\.c\.cfg\[1\]
*974 genrow\[4\]\.gencol\[5\]\.genblk1\.c\.f_out_en
*975 genrow\[4\]\.gencol\[5\]\.genblk1\.c\.mux\[0\]
*976 genrow\[4\]\.gencol\[5\]\.genblk1\.c\.mux\[1\]
*977 genrow\[5\]\.gencol\[0\]\.genblk1\.c\.cfg\[0\]
*978 genrow\[5\]\.gencol\[0\]\.genblk1\.c\.cfg\[1\]
*979 genrow\[5\]\.gencol\[0\]\.genblk1\.c\.f_out_en
*980 genrow\[5\]\.gencol\[0\]\.genblk1\.c\.mux\[0\]
*981 genrow\[5\]\.gencol\[0\]\.genblk1\.c\.mux\[1\]
*982 genrow\[5\]\.gencol\[1\]\.genblk1\.c\.cfg\[0\]
*983 genrow\[5\]\.gencol\[1\]\.genblk1\.c\.cfg\[1\]
*984 genrow\[5\]\.gencol\[1\]\.genblk1\.c\.f_out_en
*985 genrow\[5\]\.gencol\[1\]\.genblk1\.c\.mux\[0\]
*986 genrow\[5\]\.gencol\[1\]\.genblk1\.c\.mux\[1\]
*987 genrow\[5\]\.gencol\[2\]\.genblk1\.c\.cfg\[0\]
*988 genrow\[5\]\.gencol\[2\]\.genblk1\.c\.cfg\[1\]
*989 genrow\[5\]\.gencol\[2\]\.genblk1\.c\.f_out_en
*990 genrow\[5\]\.gencol\[2\]\.genblk1\.c\.mux\[0\]
*991 genrow\[5\]\.gencol\[2\]\.genblk1\.c\.mux\[1\]
*992 genrow\[5\]\.gencol\[3\]\.genblk1\.c\.cfg\[0\]
*993 genrow\[5\]\.gencol\[3\]\.genblk1\.c\.cfg\[1\]
*994 genrow\[5\]\.gencol\[3\]\.genblk1\.c\.f_out_en
*995 genrow\[5\]\.gencol\[3\]\.genblk1\.c\.mux\[0\]
*996 genrow\[5\]\.gencol\[3\]\.genblk1\.c\.mux\[1\]
*997 genrow\[5\]\.gencol\[4\]\.genblk1\.c\.cfg\[0\]
*998 genrow\[5\]\.gencol\[4\]\.genblk1\.c\.cfg\[1\]
*999 genrow\[5\]\.gencol\[4\]\.genblk1\.c\.f_out_en
*1000 genrow\[5\]\.gencol\[4\]\.genblk1\.c\.mux\[0\]
*1001 genrow\[5\]\.gencol\[4\]\.genblk1\.c\.mux\[1\]
*1002 genrow\[5\]\.gencol\[5\]\.genblk1\.c\.cfg\[0\]
*1003 genrow\[5\]\.gencol\[5\]\.genblk1\.c\.cfg\[1\]
*1004 genrow\[5\]\.gencol\[5\]\.genblk1\.c\.f_out_en
*1005 genrow\[5\]\.gencol\[5\]\.genblk1\.c\.mux\[0\]
*1006 genrow\[5\]\.gencol\[5\]\.genblk1\.c\.mux\[1\]
*1007 genrow\[6\]\.gencol\[0\]\.genblk1\.c\.cfg\[0\]
*1008 genrow\[6\]\.gencol\[0\]\.genblk1\.c\.cfg\[1\]
*1009 genrow\[6\]\.gencol\[0\]\.genblk1\.c\.f_out_en
*1010 genrow\[6\]\.gencol\[0\]\.genblk1\.c\.mux\[0\]
*1011 genrow\[6\]\.gencol\[0\]\.genblk1\.c\.mux\[1\]
*1012 genrow\[6\]\.gencol\[1\]\.genblk1\.c\.cfg\[0\]
*1013 genrow\[6\]\.gencol\[1\]\.genblk1\.c\.cfg\[1\]
*1014 genrow\[6\]\.gencol\[1\]\.genblk1\.c\.f_out_en
*1015 genrow\[6\]\.gencol\[1\]\.genblk1\.c\.mux\[0\]
*1016 genrow\[6\]\.gencol\[1\]\.genblk1\.c\.mux\[1\]
*1017 genrow\[6\]\.gencol\[2\]\.genblk1\.c\.cfg\[0\]
*1018 genrow\[6\]\.gencol\[2\]\.genblk1\.c\.cfg\[1\]
*1019 genrow\[6\]\.gencol\[2\]\.genblk1\.c\.f_out_en
*1020 genrow\[6\]\.gencol\[2\]\.genblk1\.c\.mux\[0\]
*1021 genrow\[6\]\.gencol\[2\]\.genblk1\.c\.mux\[1\]
*1022 genrow\[6\]\.gencol\[3\]\.genblk1\.c\.cfg\[0\]
*1023 genrow\[6\]\.gencol\[3\]\.genblk1\.c\.cfg\[1\]
*1024 genrow\[6\]\.gencol\[3\]\.genblk1\.c\.f_out_en
*1025 genrow\[6\]\.gencol\[3\]\.genblk1\.c\.mux\[0\]
*1026 genrow\[6\]\.gencol\[3\]\.genblk1\.c\.mux\[1\]
*1027 genrow\[6\]\.gencol\[4\]\.genblk1\.c\.cfg\[0\]
*1028 genrow\[6\]\.gencol\[4\]\.genblk1\.c\.cfg\[1\]
*1029 genrow\[6\]\.gencol\[4\]\.genblk1\.c\.f_out_en
*1030 genrow\[6\]\.gencol\[4\]\.genblk1\.c\.mux\[0\]
*1031 genrow\[6\]\.gencol\[4\]\.genblk1\.c\.mux\[1\]
*1032 genrow\[6\]\.gencol\[5\]\.genblk1\.c\.cfg\[0\]
*1033 genrow\[6\]\.gencol\[5\]\.genblk1\.c\.cfg\[1\]
*1034 genrow\[6\]\.gencol\[5\]\.genblk1\.c\.f_out_en
*1035 genrow\[6\]\.gencol\[5\]\.genblk1\.c\.mux\[0\]
*1036 genrow\[6\]\.gencol\[5\]\.genblk1\.c\.mux\[1\]
*1037 net1
*1038 net2
*1039 net3
*1040 net4
*1041 net5
*1042 net6
*1043 net7
*1044 ANTENNA_1
*1045 ANTENNA_10
*1046 ANTENNA_11
*1047 ANTENNA_12
*1048 ANTENNA_13
*1049 ANTENNA_14
*1050 ANTENNA_15
*1051 ANTENNA_16
*1052 ANTENNA_17
*1053 ANTENNA_18
*1054 ANTENNA_19
*1055 ANTENNA_2
*1056 ANTENNA_20
*1057 ANTENNA_21
*1058 ANTENNA_22
*1059 ANTENNA_23
*1060 ANTENNA_24
*1061 ANTENNA_25
*1062 ANTENNA_26
*1063 ANTENNA_27
*1064 ANTENNA_28
*1065 ANTENNA_29
*1066 ANTENNA_3
*1067 ANTENNA_30
*1068 ANTENNA_31
*1069 ANTENNA_32
*1070 ANTENNA_33
*1071 ANTENNA_34
*1072 ANTENNA_35
*1073 ANTENNA_36
*1074 ANTENNA_37
*1075 ANTENNA_38
*1076 ANTENNA_39
*1077 ANTENNA_4
*1078 ANTENNA_40
*1079 ANTENNA_41
*1080 ANTENNA_42
*1081 ANTENNA_43
*1082 ANTENNA_44
*1083 ANTENNA_45
*1084 ANTENNA_46
*1085 ANTENNA_47
*1086 ANTENNA_48
*1087 ANTENNA_49
*1088 ANTENNA_5
*1089 ANTENNA_50
*1090 ANTENNA_51
*1091 ANTENNA_52
*1092 ANTENNA_53
*1093 ANTENNA_54
*1094 ANTENNA_55
*1095 ANTENNA_56
*1096 ANTENNA_57
*1097 ANTENNA_58
*1098 ANTENNA_59
*1099 ANTENNA_6
*1100 ANTENNA_60
*1101 ANTENNA_7
*1102 ANTENNA_8
*1103 ANTENNA_9
*1104 FILLER_0_104
*1105 FILLER_0_113
*1106 FILLER_0_132
*1107 FILLER_0_136
*1108 FILLER_0_141
*1109 FILLER_0_152
*1110 FILLER_0_164
*1111 FILLER_0_169
*1112 FILLER_0_179
*1113 FILLER_0_189
*1114 FILLER_0_195
*1115 FILLER_0_197
*1116 FILLER_0_209
*1117 FILLER_0_22
*1118 FILLER_0_221
*1119 FILLER_0_225
*1120 FILLER_0_237
*1121 FILLER_0_250
*1122 FILLER_0_253
*1123 FILLER_0_261
*1124 FILLER_0_269
*1125 FILLER_0_277
*1126 FILLER_0_281
*1127 FILLER_0_287
*1128 FILLER_0_29
*1129 FILLER_0_293
*1130 FILLER_0_3
*1131 FILLER_0_48
*1132 FILLER_0_52
*1133 FILLER_0_57
*1134 FILLER_0_76
*1135 FILLER_0_80
*1136 FILLER_0_85
*1137 FILLER_10_104
*1138 FILLER_10_114
*1139 FILLER_10_135
*1140 FILLER_10_139
*1141 FILLER_10_141
*1142 FILLER_10_151
*1143 FILLER_10_172
*1144 FILLER_10_176
*1145 FILLER_10_181
*1146 FILLER_10_194
*1147 FILLER_10_197
*1148 FILLER_10_22
*1149 FILLER_10_220
*1150 FILLER_10_232
*1151 FILLER_10_243
*1152 FILLER_10_251
*1153 FILLER_10_253
*1154 FILLER_10_265
*1155 FILLER_10_274
*1156 FILLER_10_288
*1157 FILLER_10_29
*1158 FILLER_10_296
*1159 FILLER_10_3
*1160 FILLER_10_49
*1161 FILLER_10_70
*1162 FILLER_10_82
*1163 FILLER_10_85
*1164 FILLER_11_109
*1165 FILLER_11_113
*1166 FILLER_11_133
*1167 FILLER_11_148
*1168 FILLER_11_157
*1169 FILLER_11_161
*1170 FILLER_11_166
*1171 FILLER_11_169
*1172 FILLER_11_178
*1173 FILLER_11_203
*1174 FILLER_11_211
*1175 FILLER_11_222
*1176 FILLER_11_225
*1177 FILLER_11_235
*1178 FILLER_11_247
*1179 FILLER_11_259
*1180 FILLER_11_263
*1181 FILLER_11_27
*1182 FILLER_11_273
*1183 FILLER_11_279
*1184 FILLER_11_281
*1185 FILLER_11_297
*1186 FILLER_11_3
*1187 FILLER_11_35
*1188 FILLER_11_54
*1189 FILLER_11_57
*1190 FILLER_11_62
*1191 FILLER_11_83
*1192 FILLER_11_87
*1193 FILLER_11_9
*1194 FILLER_11_90
*1195 FILLER_12_104
*1196 FILLER_12_112
*1197 FILLER_12_131
*1198 FILLER_12_139
*1199 FILLER_12_141
*1200 FILLER_12_148
*1201 FILLER_12_158
*1202 FILLER_12_166
*1203 FILLER_12_172
*1204 FILLER_12_184
*1205 FILLER_12_197
*1206 FILLER_12_209
*1207 FILLER_12_22
*1208 FILLER_12_224
*1209 FILLER_12_237
*1210 FILLER_12_249
*1211 FILLER_12_253
*1212 FILLER_12_26
*1213 FILLER_12_265
*1214 FILLER_12_273
*1215 FILLER_12_286
*1216 FILLER_12_29
*1217 FILLER_12_296
*1218 FILLER_12_3
*1219 FILLER_12_48
*1220 FILLER_12_52
*1221 FILLER_12_58
*1222 FILLER_12_76
*1223 FILLER_12_85
*1224 FILLER_13_106
*1225 FILLER_13_11
*1226 FILLER_13_113
*1227 FILLER_13_132
*1228 FILLER_13_147
*1229 FILLER_13_160
*1230 FILLER_13_169
*1231 FILLER_13_176
*1232 FILLER_13_188
*1233 FILLER_13_200
*1234 FILLER_13_210
*1235 FILLER_13_219
*1236 FILLER_13_223
*1237 FILLER_13_225
*1238 FILLER_13_235
*1239 FILLER_13_247
*1240 FILLER_13_259
*1241 FILLER_13_265
*1242 FILLER_13_274
*1243 FILLER_13_281
*1244 FILLER_13_297
*1245 FILLER_13_3
*1246 FILLER_13_32
*1247 FILLER_13_53
*1248 FILLER_13_57
*1249 FILLER_13_76
*1250 FILLER_13_84
*1251 FILLER_13_87
*1252 FILLER_14_110
*1253 FILLER_14_130
*1254 FILLER_14_138
*1255 FILLER_14_141
*1256 FILLER_14_153
*1257 FILLER_14_173
*1258 FILLER_14_185
*1259 FILLER_14_194
*1260 FILLER_14_197
*1261 FILLER_14_208
*1262 FILLER_14_22
*1263 FILLER_14_220
*1264 FILLER_14_233
*1265 FILLER_14_239
*1266 FILLER_14_249
*1267 FILLER_14_253
*1268 FILLER_14_261
*1269 FILLER_14_267
*1270 FILLER_14_274
*1271 FILLER_14_286
*1272 FILLER_14_29
*1273 FILLER_14_296
*1274 FILLER_14_3
*1275 FILLER_14_52
*1276 FILLER_14_60
*1277 FILLER_14_63
*1278 FILLER_14_82
*1279 FILLER_14_85
*1280 FILLER_15_110
*1281 FILLER_15_113
*1282 FILLER_15_132
*1283 FILLER_15_144
*1284 FILLER_15_156
*1285 FILLER_15_169
*1286 FILLER_15_181
*1287 FILLER_15_193
*1288 FILLER_15_205
*1289 FILLER_15_215
*1290 FILLER_15_22
*1291 FILLER_15_223
*1292 FILLER_15_225
*1293 FILLER_15_231
*1294 FILLER_15_243
*1295 FILLER_15_249
*1296 FILLER_15_257
*1297 FILLER_15_266
*1298 FILLER_15_278
*1299 FILLER_15_281
*1300 FILLER_15_291
*1301 FILLER_15_3
*1302 FILLER_15_43
*1303 FILLER_15_53
*1304 FILLER_15_57
*1305 FILLER_15_70
*1306 FILLER_15_74
*1307 FILLER_15_95
*1308 FILLER_16_101
*1309 FILLER_16_120
*1310 FILLER_16_128
*1311 FILLER_16_141
*1312 FILLER_16_147
*1313 FILLER_16_157
*1314 FILLER_16_170
*1315 FILLER_16_182
*1316 FILLER_16_194
*1317 FILLER_16_197
*1318 FILLER_16_211
*1319 FILLER_16_219
*1320 FILLER_16_227
*1321 FILLER_16_235
*1322 FILLER_16_244
*1323 FILLER_16_253
*1324 FILLER_16_26
*1325 FILLER_16_265
*1326 FILLER_16_271
*1327 FILLER_16_277
*1328 FILLER_16_287
*1329 FILLER_16_29
*1330 FILLER_16_297
*1331 FILLER_16_3
*1332 FILLER_16_50
*1333 FILLER_16_7
*1334 FILLER_16_71
*1335 FILLER_16_81
*1336 FILLER_16_85
*1337 FILLER_16_97
*1338 FILLER_17_109
*1339 FILLER_17_113
*1340 FILLER_17_132
*1341 FILLER_17_144
*1342 FILLER_17_151
*1343 FILLER_17_165
*1344 FILLER_17_169
*1345 FILLER_17_177
*1346 FILLER_17_188
*1347 FILLER_17_200
*1348 FILLER_17_212
*1349 FILLER_17_222
*1350 FILLER_17_225
*1351 FILLER_17_236
*1352 FILLER_17_244
*1353 FILLER_17_255
*1354 FILLER_17_263
*1355 FILLER_17_27
*1356 FILLER_17_272
*1357 FILLER_17_281
*1358 FILLER_17_289
*1359 FILLER_17_296
*1360 FILLER_17_3
*1361 FILLER_17_48
*1362 FILLER_17_57
*1363 FILLER_17_76
*1364 FILLER_17_9
*1365 FILLER_17_97
*1366 FILLER_18_103
*1367 FILLER_18_111
*1368 FILLER_18_131
*1369 FILLER_18_139
*1370 FILLER_18_141
*1371 FILLER_18_157
*1372 FILLER_18_169