*SPEF "ieee 1481-1999"
*DESIGN "dratini0_pov_display_top"
*DATE "11:11:11 Fri 11 11, 1111"
*VENDOR "OpenRCX"
*PROGRAM "Parallel Extraction"
*VERSION "1.0"
*DESIGN_FLOW "NAME_SCOPE LOCAL" "PIN_CAP NONE"
*DIVIDER /
*DELIMITER :
*BUS_DELIMITER []
*T_UNIT 1 NS
*C_UNIT 1 PF
*R_UNIT 1 OHM
*L_UNIT 1 HENRY

*NAME_MAP
*1 io_in[0]
*2 io_in[1]
*3 io_in[2]
*4 io_in[3]
*5 io_in[4]
*6 io_in[5]
*7 io_in[6]
*8 io_in[7]
*9 io_out[0]
*10 io_out[1]
*11 io_out[2]
*12 io_out[3]
*13 io_out[4]
*14 io_out[5]
*15 io_out[6]
*16 io_out[7]
*19 _0000_
*20 _0001_
*21 _0002_
*22 _0003_
*23 _0004_
*24 _0005_
*25 _0006_
*26 _0007_
*27 _0008_
*28 _0009_
*29 _0010_
*30 _0011_
*31 _0012_
*32 _0013_
*33 _0014_
*34 _0015_
*35 _0016_
*36 _0017_
*37 _0018_
*38 _0019_
*39 _0020_
*40 _0021_
*41 _0022_
*42 _0023_
*43 _0024_
*44 _0025_
*45 _0026_
*46 _0027_
*47 _0028_
*48 _0029_
*49 _0030_
*50 _0031_
*51 _0032_
*52 _0033_
*53 _0034_
*54 _0035_
*55 _0036_
*56 _0037_
*57 _0038_
*58 _0039_
*59 _0040_
*60 _0041_
*61 _0042_
*62 _0043_
*63 _0044_
*64 _0045_
*65 _0046_
*66 _0047_
*67 _0048_
*68 _0049_
*69 _0050_
*70 _0051_
*71 _0052_
*72 _0053_
*73 _0054_
*74 _0055_
*75 _0056_
*76 _0057_
*77 _0058_
*78 _0059_
*79 _0060_
*80 _0061_
*81 _0062_
*82 _0063_
*83 _0064_
*84 _0065_
*85 _0066_
*86 _0067_
*87 _0068_
*88 _0069_
*89 _0070_
*90 _0071_
*91 _0072_
*92 _0073_
*93 _0074_
*94 _0075_
*95 _0076_
*96 _0077_
*97 _0078_
*98 _0079_
*99 _0080_
*100 _0081_
*101 _0082_
*102 _0083_
*103 _0084_
*104 _0085_
*105 _0086_
*106 _0087_
*107 _0088_
*108 _0089_
*109 _0090_
*110 _0091_
*111 _0092_
*112 _0093_
*113 _0094_
*114 _0095_
*115 _0096_
*116 _0097_
*117 _0098_
*118 _0099_
*119 _0100_
*120 _0101_
*121 _0102_
*122 _0103_
*123 _0104_
*124 _0105_
*125 _0106_
*126 _0107_
*127 _0108_
*128 _0109_
*129 _0110_
*130 _0111_
*131 _0112_
*132 _0113_
*133 _0114_
*134 _0115_
*135 _0116_
*136 _0117_
*137 _0118_
*138 _0119_
*139 _0120_
*140 _0121_
*141 _0122_
*142 _0123_
*143 _0124_
*144 _0125_
*145 _0126_
*146 _0127_
*147 _0128_
*148 _0129_
*149 _0130_
*150 _0131_
*151 _0132_
*152 _0133_
*153 _0134_
*154 _0135_
*155 _0136_
*156 _0137_
*157 _0138_
*158 _0139_
*159 _0140_
*160 _0141_
*161 _0142_
*162 _0143_
*163 _0144_
*164 _0145_
*165 _0146_
*166 _0147_
*167 _0148_
*168 _0149_
*169 _0150_
*170 _0151_
*171 _0152_
*172 _0153_
*173 _0154_
*174 _0155_
*175 _0156_
*176 _0157_
*177 _0158_
*178 _0159_
*179 _0160_
*180 _0161_
*181 _0162_
*182 _0163_
*183 _0164_
*184 _0165_
*185 _0166_
*186 _0167_
*187 _0168_
*188 _0169_
*189 _0170_
*190 _0171_
*191 _0172_
*192 _0173_
*193 _0174_
*194 _0175_
*195 _0176_
*196 _0177_
*197 _0178_
*198 _0179_
*199 _0180_
*200 _0181_
*201 _0182_
*202 _0183_
*203 _0184_
*204 _0185_
*205 _0186_
*206 _0187_
*207 _0188_
*208 _0189_
*209 _0190_
*210 _0191_
*211 _0192_
*212 _0193_
*213 _0194_
*214 _0195_
*215 _0196_
*216 _0197_
*217 _0198_
*218 _0199_
*219 _0200_
*220 _0201_
*221 _0202_
*222 _0203_
*223 _0204_
*224 _0205_
*225 _0206_
*226 _0207_
*227 _0208_
*228 _0209_
*229 _0210_
*230 _0211_
*231 _0212_
*232 _0213_
*233 _0214_
*234 _0215_
*235 _0216_
*236 _0217_
*237 _0218_
*238 _0219_
*239 _0220_
*240 _0221_
*241 _0222_
*242 _0223_
*243 _0224_
*244 _0225_
*245 _0226_
*246 _0227_
*247 _0228_
*248 _0229_
*249 _0230_
*250 _0231_
*251 _0232_
*252 _0233_
*253 _0234_
*254 _0235_
*255 _0236_
*256 _0237_
*257 _0238_
*258 _0239_
*259 _0240_
*260 _0241_
*261 _0242_
*262 _0243_
*263 _0244_
*264 _0245_
*265 _0246_
*266 _0247_
*267 _0248_
*268 _0249_
*269 _0250_
*270 _0251_
*271 _0252_
*272 _0253_
*273 _0254_
*274 _0255_
*275 _0256_
*276 _0257_
*277 _0258_
*278 _0259_
*279 _0260_
*280 _0261_
*281 _0262_
*282 _0263_
*283 _0264_
*284 _0265_
*285 _0266_
*286 _0267_
*287 _0268_
*288 _0269_
*289 _0270_
*290 _0271_
*291 _0272_
*292 _0273_
*293 _0274_
*294 _0275_
*295 _0276_
*296 _0277_
*297 _0278_
*298 _0279_
*299 _0280_
*300 _0281_
*301 _0282_
*302 _0283_
*303 _0284_
*304 _0285_
*305 _0286_
*306 _0287_
*307 _0288_
*308 _0289_
*309 _0290_
*310 _0291_
*311 _0292_
*312 _0293_
*313 _0294_
*314 _0295_
*315 _0296_
*316 _0297_
*317 _0298_
*318 _0299_
*319 _0300_
*320 _0301_
*321 _0302_
*322 _0303_
*323 _0304_
*324 _0305_
*325 _0306_
*326 _0307_
*327 _0308_
*328 _0309_
*329 _0310_
*330 _0311_
*331 _0312_
*332 _0313_
*333 _0314_
*334 _0315_
*335 _0316_
*336 _0317_
*337 _0318_
*338 _0319_
*339 _0320_
*340 _0321_
*341 _0322_
*342 _0323_
*343 _0324_
*344 _0325_
*345 _0326_
*346 _0327_
*347 _0328_
*348 _0329_
*349 _0330_
*350 _0331_
*351 _0332_
*352 _0333_
*353 _0334_
*354 _0335_
*355 _0336_
*356 _0337_
*357 _0338_
*358 _0339_
*359 _0340_
*360 _0341_
*361 _0342_
*362 _0343_
*363 _0344_
*364 _0345_
*365 _0346_
*366 _0347_
*367 _0348_
*368 _0349_
*369 _0350_
*370 _0351_
*371 _0352_
*372 _0353_
*373 _0354_
*374 _0355_
*375 _0356_
*376 _0357_
*377 _0358_
*378 _0359_
*379 _0360_
*380 _0361_
*381 _0362_
*382 _0363_
*383 _0364_
*384 _0365_
*385 _0366_
*386 _0367_
*387 _0368_
*388 _0369_
*389 _0370_
*390 _0371_
*391 _0372_
*392 _0373_
*393 _0374_
*394 _0375_
*395 _0376_
*396 _0377_
*397 _0378_
*398 _0379_
*399 _0380_
*400 _0381_
*401 _0382_
*402 _0383_
*403 _0384_
*404 _0385_
*405 _0386_
*406 _0387_
*407 _0388_
*408 _0389_
*409 _0390_
*410 _0391_
*411 _0392_
*412 _0393_
*413 _0394_
*414 _0395_
*415 _0396_
*416 _0397_
*417 _0398_
*418 _0399_
*419 _0400_
*420 _0401_
*421 _0402_
*422 _0403_
*423 _0404_
*424 _0405_
*425 _0406_
*426 _0407_
*427 _0408_
*428 _0409_
*429 _0410_
*430 _0411_
*431 _0412_
*432 _0413_
*433 _0414_
*434 _0415_
*435 _0416_
*436 _0417_
*437 _0418_
*438 _0419_
*439 _0420_
*440 _0421_
*441 _0422_
*442 _0423_
*443 _0424_
*444 _0425_
*445 _0426_
*446 _0427_
*447 _0428_
*448 _0429_
*449 _0430_
*450 _0431_
*451 _0432_
*452 _0433_
*453 _0434_
*454 _0435_
*455 _0436_
*456 _0437_
*457 _0438_
*458 _0439_
*459 _0440_
*460 _0441_
*461 _0442_
*462 _0443_
*463 _0444_
*464 _0445_
*465 _0446_
*466 _0447_
*467 _0448_
*468 _0449_
*469 _0450_
*470 _0451_
*471 _0452_
*472 _0453_
*473 _0454_
*474 _0455_
*475 _0456_
*476 _0457_
*477 _0458_
*478 _0459_
*479 _0460_
*480 _0461_
*481 _0462_
*482 _0463_
*483 _0464_
*484 _0465_
*485 _0466_
*486 _0467_
*487 _0468_
*488 _0469_
*489 _0470_
*490 _0471_
*491 _0472_
*492 _0473_
*493 _0474_
*494 _0475_
*495 _0476_
*496 _0477_
*497 _0478_
*498 _0479_
*499 _0480_
*500 _0481_
*501 _0482_
*502 _0483_
*503 _0484_
*504 _0485_
*505 _0486_
*506 _0487_
*507 _0488_
*508 _0489_
*509 _0490_
*510 _0491_
*511 _0492_
*512 _0493_
*513 _0494_
*514 _0495_
*515 _0496_
*516 _0497_
*517 _0498_
*518 _0499_
*519 _0500_
*520 _0501_
*521 _0502_
*522 _0503_
*523 _0504_
*524 _0505_
*525 _0506_
*526 _0507_
*527 _0508_
*528 _0509_
*529 _0510_
*530 _0511_
*531 _0512_
*532 _0513_
*533 _0514_
*534 _0515_
*535 _0516_
*536 _0517_
*537 _0518_
*538 _0519_
*539 _0520_
*540 _0521_
*541 _0522_
*542 _0523_
*543 _0524_
*544 _0525_
*545 _0526_
*546 _0527_
*547 _0528_
*548 _0529_
*549 _0530_
*550 _0531_
*551 _0532_
*552 _0533_
*553 _0534_
*554 _0535_
*555 _0536_
*556 _0537_
*557 _0538_
*558 _0539_
*559 _0540_
*560 _0541_
*561 _0542_
*562 _0543_
*563 _0544_
*564 _0545_
*565 _0546_
*566 _0547_
*567 _0548_
*568 _0549_
*569 _0550_
*570 _0551_
*571 _0552_
*572 _0553_
*573 _0554_
*574 _0555_
*575 _0556_
*576 _0557_
*577 _0558_
*578 _0559_
*579 _0560_
*580 _0561_
*581 _0562_
*582 _0563_
*583 _0564_
*584 _0565_
*585 _0566_
*586 _0567_
*587 _0568_
*588 _0569_
*589 _0570_
*590 _0571_
*591 _0572_
*592 _0573_
*593 _0574_
*594 _0575_
*595 _0576_
*596 _0577_
*597 _0578_
*598 _0579_
*599 _0580_
*600 _0581_
*601 _0582_
*602 _0583_
*603 _0584_
*604 _0585_
*605 _0586_
*606 _0587_
*607 _0588_
*608 _0589_
*609 _0590_
*610 _0591_
*611 _0592_
*612 _0593_
*613 _0594_
*614 _0595_
*615 _0596_
*616 _0597_
*617 _0598_
*618 _0599_
*619 _0600_
*620 _0601_
*621 _0602_
*622 _0603_
*623 _0604_
*624 _0605_
*625 _0606_
*626 _0607_
*627 _0608_
*628 _0609_
*629 _0610_
*630 _0611_
*631 _0612_
*632 _0613_
*633 _0614_
*634 _0615_
*635 _0616_
*636 _0617_
*637 _0618_
*638 _0619_
*639 _0620_
*640 _0621_
*641 _0622_
*642 _0623_
*643 _0624_
*644 _0625_
*645 _0626_
*646 _0627_
*647 _0628_
*648 _0629_
*649 _0630_
*650 _0631_
*651 _0632_
*652 _0633_
*653 _0634_
*654 _0635_
*655 _0636_
*656 _0637_
*657 _0638_
*658 _0639_
*659 _0640_
*660 _0641_
*661 _0642_
*662 _0643_
*663 _0644_
*664 _0645_
*665 _0646_
*666 _0647_
*667 _0648_
*668 _0649_
*669 _0650_
*670 _0651_
*671 _0652_
*672 _0653_
*673 _0654_
*674 _0655_
*675 _0656_
*676 _0657_
*677 _0658_
*678 _0659_
*679 _0660_
*680 _0661_
*681 _0662_
*682 _0663_
*683 _0664_
*684 _0665_
*685 _0666_
*686 _0667_
*687 _0668_
*688 _0669_
*689 _0670_
*690 _0671_
*691 _0672_
*692 _0673_
*693 _0674_
*694 _0675_
*695 _0676_
*696 _0677_
*697 _0678_
*698 _0679_
*699 _0680_
*700 _0681_
*701 _0682_
*702 _0683_
*703 _0684_
*704 _0685_
*705 _0686_
*706 _0687_
*707 _0688_
*708 _0689_
*709 _0690_
*710 _0691_
*711 _0692_
*712 _0693_
*713 _0694_
*714 _0695_
*715 _0696_
*716 _0697_
*717 _0698_
*718 _0699_
*719 _0700_
*720 _0701_
*721 _0702_
*722 _0703_
*723 _0704_
*724 _0705_
*725 _0706_
*726 _0707_
*727 _0708_
*728 _0709_
*729 _0710_
*730 _0711_
*731 _0712_
*732 _0713_
*733 _0714_
*734 _0715_
*735 _0716_
*736 _0717_
*737 _0718_
*738 _0719_
*739 _0720_
*740 _0721_
*741 _0722_
*742 _0723_
*743 _0724_
*744 _0725_
*745 _0726_
*746 _0727_
*747 _0728_
*748 _0729_
*749 _0730_
*750 _0731_
*751 _0732_
*752 _0733_
*753 _0734_
*754 _0735_
*755 _0736_
*756 _0737_
*757 _0738_
*758 _0739_
*759 _0740_
*760 _0741_
*761 _0742_
*762 _0743_
*763 _0744_
*764 _0745_
*765 _0746_
*766 _0747_
*767 _0748_
*768 _0749_
*769 _0750_
*770 _0751_
*771 _0752_
*772 _0753_
*773 _0754_
*774 _0755_
*775 _0756_
*776 _0757_
*777 _0758_
*778 _0759_
*779 _0760_
*780 _0761_
*781 _0762_
*782 _0763_
*783 _0764_
*784 _0765_
*785 _0766_
*786 _0767_
*787 _0768_
*788 _0769_
*789 _0770_
*790 _0771_
*791 _0772_
*792 _0773_
*793 _0774_
*794 _0775_
*795 _0776_
*796 _0777_
*797 _0778_
*798 clknet_0_io_in[0]
*799 clknet_1_0__leaf_io_in[0]
*800 clknet_1_1__leaf_io_in[0]
*801 clknet_leaf_0_io_in[0]
*802 clknet_leaf_10_io_in[0]
*803 clknet_leaf_11_io_in[0]
*804 clknet_leaf_12_io_in[0]
*805 clknet_leaf_13_io_in[0]
*806 clknet_leaf_14_io_in[0]
*807 clknet_leaf_15_io_in[0]
*808 clknet_leaf_16_io_in[0]
*809 clknet_leaf_17_io_in[0]
*810 clknet_leaf_18_io_in[0]
*811 clknet_leaf_19_io_in[0]
*812 clknet_leaf_1_io_in[0]
*813 clknet_leaf_20_io_in[0]
*814 clknet_leaf_21_io_in[0]
*815 clknet_leaf_22_io_in[0]
*816 clknet_leaf_23_io_in[0]
*817 clknet_leaf_24_io_in[0]
*818 clknet_leaf_25_io_in[0]
*819 clknet_leaf_2_io_in[0]
*820 clknet_leaf_3_io_in[0]
*821 clknet_leaf_4_io_in[0]
*822 clknet_leaf_5_io_in[0]
*823 clknet_leaf_6_io_in[0]
*824 clknet_leaf_7_io_in[0]
*825 clknet_leaf_8_io_in[0]
*826 clknet_leaf_9_io_in[0]
*827 display\.controller\._count\[0\]
*828 display\.controller\._count\[1\]
*829 display\.controller\._count\[2\]
*830 display\.controller\._count\[3\]
*831 display\.controller\._count\[4\]
*832 display\.controller\._count\[5\]
*833 display\.controller\._pulser\._comparison_signal\[0\]
*834 display\.controller\._pulser\._comparison_signal\[1\]
*835 display\.controller\._pulser\._comparison_signal\[2\]
*836 display\.controller\._pulser\._comparison_signal\[3\]
*837 display\.controller\._pulser\._comparison_signal\[4\]
*838 display\.controller\._pulser\._comparison_signal\[5\]
*839 display\.controller\._pulser\._comparison_signal\[6\]
*840 display\.controller\._pulser\._comparison_signal\[7\]
*841 display\.controller\._pulser\._comparison_signal\[8\]
*842 display\.controller\._pulser\._comparison_signal\[9\]
*843 display\.controller\._pulser\._counter\[0\]
*844 display\.controller\._pulser\._counter\[1\]
*845 display\.controller\._pulser\._counter\[2\]
*846 display\.controller\._pulser\._counter\[3\]
*847 display\.controller\._pulser\._counter\[4\]
*848 display\.controller\._pulser\._counter\[5\]
*849 display\.controller\._pulser\._counter\[6\]
*850 display\.controller\._pulser\._counter\[7\]
*851 display\.controller\._pulser\._counter\[8\]
*852 display\.controller\._pulser\._counter\[9\]
*853 display\.controller\._pulser\._last_total\[0\]
*854 display\.controller\._pulser\._last_total\[1\]
*855 display\.controller\._pulser\._last_total\[2\]
*856 display\.controller\._pulser\._last_total\[3\]
*857 display\.controller\._pulser\._last_total\[4\]
*858 display\.controller\._pulser\._last_total\[5\]
*859 display\.controller\._pulser\._last_total\[6\]
*860 display\.controller\._pulser\._last_total\[7\]
*861 display\.controller\._pulser\._last_total\[8\]
*862 display\.controller\._pulser\._last_total\[9\]
*863 display\.controller\._pulser\.hall_edge\.in_
*864 display\.controller\._pulser\.hall_edge\.last_in
*865 display\.controller\._state
*866 display\.mem\._state\[0\]
*867 display\.mem\._state\[100\]
*868 display\.mem\._state\[101\]
*869 display\.mem\._state\[102\]
*870 display\.mem\._state\[103\]
*871 display\.mem\._state\[104\]
*872 display\.mem\._state\[105\]
*873 display\.mem\._state\[106\]
*874 display\.mem\._state\[107\]
*875 display\.mem\._state\[108\]
*876 display\.mem\._state\[109\]
*877 display\.mem\._state\[10\]
*878 display\.mem\._state\[110\]
*879 display\.mem\._state\[111\]
*880 display\.mem\._state\[112\]
*881 display\.mem\._state\[113\]
*882 display\.mem\._state\[114\]
*883 display\.mem\._state\[115\]
*884 display\.mem\._state\[116\]
*885 display\.mem\._state\[117\]
*886 display\.mem\._state\[118\]
*887 display\.mem\._state\[119\]
*888 display\.mem\._state\[11\]
*889 display\.mem\._state\[120\]
*890 display\.mem\._state\[121\]
*891 display\.mem\._state\[122\]
*892 display\.mem\._state\[123\]
*893 display\.mem\._state\[124\]
*894 display\.mem\._state\[125\]
*895 display\.mem\._state\[126\]
*896 display\.mem\._state\[127\]
*897 display\.mem\._state\[128\]
*898 display\.mem\._state\[129\]
*899 display\.mem\._state\[12\]
*900 display\.mem\._state\[130\]
*901 display\.mem\._state\[131\]
*902 display\.mem\._state\[132\]
*903 display\.mem\._state\[133\]
*904 display\.mem\._state\[134\]
*905 display\.mem\._state\[135\]
*906 display\.mem\._state\[136\]
*907 display\.mem\._state\[137\]
*908 display\.mem\._state\[138\]
*909 display\.mem\._state\[139\]
*910 display\.mem\._state\[13\]
*911 display\.mem\._state\[140\]
*912 display\.mem\._state\[141\]
*913 display\.mem\._state\[142\]
*914 display\.mem\._state\[143\]
*915 display\.mem\._state\[144\]
*916 display\.mem\._state\[145\]
*917 display\.mem\._state\[146\]
*918 display\.mem\._state\[147\]
*919 display\.mem\._state\[148\]
*920 display\.mem\._state\[149\]
*921 display\.mem\._state\[14\]
*922 display\.mem\._state\[150\]
*923 display\.mem\._state\[151\]
*924 display\.mem\._state\[152\]
*925 display\.mem\._state\[153\]
*926 display\.mem\._state\[154\]
*927 display\.mem\._state\[155\]
*928 display\.mem\._state\[156\]
*929 display\.mem\._state\[157\]
*930 display\.mem\._state\[158\]
*931 display\.mem\._state\[159\]
*932 display\.mem\._state\[15\]
*933 display\.mem\._state\[160\]
*934 display\.mem\._state\[161\]
*935 display\.mem\._state\[162\]
*936 display\.mem\._state\[163\]
*937 display\.mem\._state\[164\]
*938 display\.mem\._state\[165\]
*939 display\.mem\._state\[166\]
*940 display\.mem\._state\[167\]
*941 display\.mem\._state\[168\]
*942 display\.mem\._state\[169\]
*943 display\.mem\._state\[16\]
*944 display\.mem\._state\[170\]
*945 display\.mem\._state\[171\]
*946 display\.mem\._state\[172\]
*947 display\.mem\._state\[173\]
*948 display\.mem\._state\[174\]
*949 display\.mem\._state\[175\]
*950 display\.mem\._state\[176\]
*951 display\.mem\._state\[177\]
*952 display\.mem\._state\[178\]
*953 display\.mem\._state\[179\]
*954 display\.mem\._state\[17\]
*955 display\.mem\._state\[180\]
*956 display\.mem\._state\[181\]
*957 display\.mem\._state\[182\]
*958 display\.mem\._state\[183\]
*959 display\.mem\._state\[184\]
*960 display\.mem\._state\[185\]
*961 display\.mem\._state\[186\]
*962 display\.mem\._state\[187\]
*963 display\.mem\._state\[188\]
*964 display\.mem\._state\[189\]
*965 display\.mem\._state\[18\]
*966 display\.mem\._state\[190\]
*967 display\.mem\._state\[191\]
*968 display\.mem\._state\[192\]
*969 display\.mem\._state\[193\]
*970 display\.mem\._state\[194\]
*971 display\.mem\._state\[195\]
*972 display\.mem\._state\[196\]
*973 display\.mem\._state\[197\]
*974 display\.mem\._state\[198\]
*975 display\.mem\._state\[199\]
*976 display\.mem\._state\[19\]
*977 display\.mem\._state\[1\]
*978 display\.mem\._state\[200\]
*979 display\.mem\._state\[201\]
*980 display\.mem\._state\[202\]
*981 display\.mem\._state\[203\]
*982 display\.mem\._state\[204\]
*983 display\.mem\._state\[205\]
*984 display\.mem\._state\[206\]
*985 display\.mem\._state\[207\]
*986 display\.mem\._state\[208\]
*987 display\.mem\._state\[209\]
*988 display\.mem\._state\[20\]
*989 display\.mem\._state\[210\]
*990 display\.mem\._state\[211\]
*991 display\.mem\._state\[212\]
*992 display\.mem\._state\[213\]
*993 display\.mem\._state\[214\]
*994 display\.mem\._state\[215\]
*995 display\.mem\._state\[216\]
*996 display\.mem\._state\[217\]
*997 display\.mem\._state\[218\]
*998 display\.mem\._state\[219\]
*999 display\.mem\._state\[21\]
*1000 display\.mem\._state\[220\]
*1001 display\.mem\._state\[221\]
*1002 display\.mem\._state\[222\]
*1003 display\.mem\._state\[223\]
*1004 display\.mem\._state\[224\]
*1005 display\.mem\._state\[225\]
*1006 display\.mem\._state\[226\]
*1007 display\.mem\._state\[227\]
*1008 display\.mem\._state\[228\]
*1009 display\.mem\._state\[229\]
*1010 display\.mem\._state\[22\]
*1011 display\.mem\._state\[230\]
*1012 display\.mem\._state\[231\]
*1013 display\.mem\._state\[232\]
*1014 display\.mem\._state\[233\]
*1015 display\.mem\._state\[234\]
*1016 display\.mem\._state\[235\]
*1017 display\.mem\._state\[236\]
*1018 display\.mem\._state\[237\]
*1019 display\.mem\._state\[238\]
*1020 display\.mem\._state\[239\]
*1021 display\.mem\._state\[23\]
*1022 display\.mem\._state\[240\]
*1023 display\.mem\._state\[241\]
*1024 display\.mem\._state\[242\]
*1025 display\.mem\._state\[243\]
*1026 display\.mem\._state\[244\]
*1027 display\.mem\._state\[245\]
*1028 display\.mem\._state\[246\]
*1029 display\.mem\._state\[247\]
*1030 display\.mem\._state\[248\]
*1031 display\.mem\._state\[249\]
*1032 display\.mem\._state\[24\]
*1033 display\.mem\._state\[250\]
*1034 display\.mem\._state\[251\]
*1035 display\.mem\._state\[252\]
*1036 display\.mem\._state\[253\]
*1037 display\.mem\._state\[254\]
*1038 display\.mem\._state\[255\]
*1039 display\.mem\._state\[25\]
*1040 display\.mem\._state\[26\]
*1041 display\.mem\._state\[27\]
*1042 display\.mem\._state\[28\]
*1043 display\.mem\._state\[29\]
*1044 display\.mem\._state\[2\]
*1045 display\.mem\._state\[30\]
*1046 display\.mem\._state\[31\]
*1047 display\.mem\._state\[32\]
*1048 display\.mem\._state\[33\]
*1049 display\.mem\._state\[34\]
*1050 display\.mem\._state\[35\]
*1051 display\.mem\._state\[36\]
*1052 display\.mem\._state\[37\]
*1053 display\.mem\._state\[38\]
*1054 display\.mem\._state\[39\]
*1055 display\.mem\._state\[3\]
*1056 display\.mem\._state\[40\]
*1057 display\.mem\._state\[41\]
*1058 display\.mem\._state\[42\]
*1059 display\.mem\._state\[43\]
*1060 display\.mem\._state\[44\]
*1061 display\.mem\._state\[45\]
*1062 display\.mem\._state\[46\]
*1063 display\.mem\._state\[47\]
*1064 display\.mem\._state\[48\]
*1065 display\.mem\._state\[49\]
*1066 display\.mem\._state\[4\]
*1067 display\.mem\._state\[50\]
*1068 display\.mem\._state\[51\]
*1069 display\.mem\._state\[52\]
*1070 display\.mem\._state\[53\]
*1071 display\.mem\._state\[54\]
*1072 display\.mem\._state\[55\]
*1073 display\.mem\._state\[56\]
*1074 display\.mem\._state\[57\]
*1075 display\.mem\._state\[58\]
*1076 display\.mem\._state\[59\]
*1077 display\.mem\._state\[5\]
*1078 display\.mem\._state\[60\]
*1079 display\.mem\._state\[61\]
*1080 display\.mem\._state\[62\]
*1081 display\.mem\._state\[63\]
*1082 display\.mem\._state\[64\]
*1083 display\.mem\._state\[65\]
*1084 display\.mem\._state\[66\]
*1085 display\.mem\._state\[67\]
*1086 display\.mem\._state\[68\]
*1087 display\.mem\._state\[69\]
*1088 display\.mem\._state\[6\]
*1089 display\.mem\._state\[70\]
*1090 display\.mem\._state\[71\]
*1091 display\.mem\._state\[72\]
*1092 display\.mem\._state\[73\]
*1093 display\.mem\._state\[74\]
*1094 display\.mem\._state\[75\]
*1095 display\.mem\._state\[76\]
*1096 display\.mem\._state\[77\]
*1097 display\.mem\._state\[78\]
*1098 display\.mem\._state\[79\]
*1099 display\.mem\._state\[7\]
*1100 display\.mem\._state\[80\]
*1101 display\.mem\._state\[81\]
*1102 display\.mem\._state\[82\]
*1103 display\.mem\._state\[83\]
*1104 display\.mem\._state\[84\]
*1105 display\.mem\._state\[85\]
*1106 display\.mem\._state\[86\]
*1107 display\.mem\._state\[87\]
*1108 display\.mem\._state\[88\]
*1109 display\.mem\._state\[89\]
*1110 display\.mem\._state\[8\]
*1111 display\.mem\._state\[90\]
*1112 display\.mem\._state\[91\]
*1113 display\.mem\._state\[92\]
*1114 display\.mem\._state\[93\]
*1115 display\.mem\._state\[94\]
*1116 display\.mem\._state\[95\]
*1117 display\.mem\._state\[96\]
*1118 display\.mem\._state\[97\]
*1119 display\.mem\._state\[98\]
*1120 display\.mem\._state\[99\]
*1121 display\.mem\._state\[9\]
*1122 display\.spi\.\$25
*1123 display\.spi\._bit_index\[0\]
*1124 display\.spi\._bit_index\[1\]
*1125 display\.spi\._bit_index\[2\]
*1126 display\.spi\.data\[0\]
*1127 display\.spi\.data\[1\]
*1128 display\.spi\.data\[2\]
*1129 display\.spi\.data\[3\]
*1130 display\.spi\.data\[4\]
*1131 display\.spi\.data\[5\]
*1132 display\.spi\.data\[6\]
*1133 display\.spi\.data\[7\]
*1134 display\.spi\.sck_edge\.last_in
*1135 display\.spi\.we
*1136 net1
*1137 net2
*1138 net3
*1139 net4
*1140 net5
*1141 net6
*1142 net7
*1143 ANTENNA_1
*1144 ANTENNA_2
*1145 ANTENNA_3
*1146 FILLER_0_103
*1147 FILLER_0_110
*1148 FILLER_0_113
*1149 FILLER_0_122
*1150 FILLER_0_131
*1151 FILLER_0_138
*1152 FILLER_0_141
*1153 FILLER_0_147
*1154 FILLER_0_154
*1155 FILLER_0_161
*1156 FILLER_0_167
*1157 FILLER_0_169
*1158 FILLER_0_177
*1159 FILLER_0_181
*1160 FILLER_0_188
*1161 FILLER_0_197
*1162 FILLER_0_208
*1163 FILLER_0_21
*1164 FILLER_0_212
*1165 FILLER_0_222
*1166 FILLER_0_225
*1167 FILLER_0_236
*1168 FILLER_0_249
*1169 FILLER_0_253
*1170 FILLER_0_265
*1171 FILLER_0_27
*1172 FILLER_0_278
*1173 FILLER_0_281
*1174 FILLER_0_286
*1175 FILLER_0_29
*1176 FILLER_0_293
*1177 FILLER_0_3
*1178 FILLER_0_35
*1179 FILLER_0_43
*1180 FILLER_0_47
*1181 FILLER_0_54
*1182 FILLER_0_57
*1183 FILLER_0_61
*1184 FILLER_0_65
*1185 FILLER_0_74
*1186 FILLER_0_78
*1187 FILLER_0_82
*1188 FILLER_0_85
*1189 FILLER_0_92
*1190 FILLER_10_112
*1191 FILLER_10_124
*1192 FILLER_10_135
*1193 FILLER_10_139
*1194 FILLER_10_141
*1195 FILLER_10_146
*1196 FILLER_10_158
*1197 FILLER_10_166
*1198 FILLER_10_170
*1199 FILLER_10_180
*1200 FILLER_10_184
*1201 FILLER_10_19
*1202 FILLER_10_194
*1203 FILLER_10_197
*1204 FILLER_10_208
*1205 FILLER_10_220
*1206 FILLER_10_231
*1207 FILLER_10_235
*1208 FILLER_10_245
*1209 FILLER_10_251
*1210 FILLER_10_253
*1211 FILLER_10_26
*1212 FILLER_10_271
*1213 FILLER_10_279
*1214 FILLER_10_29
*1215 FILLER_10_297
*1216 FILLER_10_3
*1217 FILLER_10_34
*1218 FILLER_10_45
*1219 FILLER_10_52
*1220 FILLER_10_63
*1221 FILLER_10_70
*1222 FILLER_10_8
*1223 FILLER_10_81
*1224 FILLER_10_85
*1225 FILLER_10_91
*1226 FILLER_10_95
*1227 FILLER_11_105
*1228 FILLER_11_110
*1229 FILLER_11_113
*1230 FILLER_11_121
*1231 FILLER_11_133
*1232 FILLER_11_146
*1233 FILLER_11_166
*1234 FILLER_11_169
*1235 FILLER_11_174
*1236 FILLER_11_182
*1237 FILLER_11_188
*1238 FILLER_11_200
*1239 FILLER_11_21
*1240 FILLER_11_215
*1241 FILLER_11_222
*1242 FILLER_11_225
*1243 FILLER_11_243
*1244 FILLER_11_263
*1245 FILLER_11_276
*1246 FILLER_11_281
*1247 FILLER_11_286
*1248 FILLER_11_293
*1249 FILLER_11_3
*1250 FILLER_11_38
*1251 FILLER_11_51
*1252 FILLER_11_55
*1253 FILLER_11_57
*1254 FILLER_11_72
*1255 FILLER_11_80
*1256 FILLER_11_93
*1257 FILLER_12_102
*1258 FILLER_12_107
*1259 FILLER_12_118
*1260 FILLER_12_13
*1261 FILLER_12_138
*1262 FILLER_12_141
*1263 FILLER_12_159
*1264 FILLER_12_171
*1265 FILLER_12_191
*1266 FILLER_12_195
*1267 FILLER_12_197
*1268 FILLER_12_202
*1269 FILLER_12_222
*1270 FILLER_12_229
*1271 FILLER_12_23
*1272 FILLER_12_240
*1273 FILLER_12_246
*1274 FILLER_12_250
*1275 FILLER_12_253
*1276 FILLER_12_260
*1277 FILLER_12_27
*1278 FILLER_12_284
*1279 FILLER_12_29
*1280 FILLER_12_291
*1281 FILLER_12_3
*1282 FILLER_12_36
*1283 FILLER_12_49
*1284 FILLER_12_55
*1285 FILLER_12_7
*1286 FILLER_12_72
*1287 FILLER_12_78
*1288 FILLER_12_82
*1289 FILLER_12_85
*1290 FILLER_12_90
*1291 FILLER_13_105
*1292 FILLER_13_111
*1293 FILLER_13_113
*1294 FILLER_13_118
*1295 FILLER_13_12
*1296 FILLER_13_125
*1297 FILLER_13_129
*1298 FILLER_13_133
*1299 FILLER_13_143
*1300 FILLER_13_163
*1301 FILLER_13_167
*1302 FILLER_13_169
*1303 FILLER_13_180
*1304 FILLER_13_187
*1305 FILLER_13_191
*1306 FILLER_13_208
*1307 FILLER_13_21
*1308 FILLER_13_221
*1309 FILLER_13_225
*1310 FILLER_13_230
*1311 FILLER_13_252
*1312 FILLER_13_260
*1313 FILLER_13_278
*1314 FILLER_13_281
*1315 FILLER_13_29
*1316 FILLER_13_292
*1317 FILLER_13_298
*1318 FILLER_13_3
*1319 FILLER_13_33
*1320 FILLER_13_43
*1321 FILLER_13_54
*1322 FILLER_13_57
*1323 FILLER_13_65
*1324 FILLER_13_72
*1325 FILLER_13_76
*1326 FILLER_13_80
*1327 FILLER_14_105
*1328 FILLER_14_116
*1329 FILLER_14_125
*1330 FILLER_14_13
*1331 FILLER_14_133
*1332 FILLER_14_139
*1333 FILLER_14_141
*1334 FILLER_14_147
*1335 FILLER_14_153
*1336 FILLER_14_157
*1337 FILLER_14_177
*1338 FILLER_14_19
*1339 FILLER_14_190
*1340 FILLER_14_197
*1341 FILLER_14_205
*1342 FILLER_14_223
*1343 FILLER_14_243
*1344 FILLER_14_250
*1345 FILLER_14_253
*1346 FILLER_14_26
*1347 FILLER_14_271
*1348 FILLER_14_279
*1349 FILLER_14_29
*1350 FILLER_14_296
*1351 FILLER_14_3
*1352 FILLER_14_48
*1353 FILLER_14_52
*1354 FILLER_14_59
*1355 FILLER_14_69
*1356 FILLER_14_75
*1357 FILLER_14_82
*1358 FILLER_14_85
*1359 FILLER_14_9
*1360 FILLER_14_93
*1361 FILLER_15_105
*1362 FILLER_15_111
*1363 FILLER_15_113
*1364 FILLER_15_12
*1365 FILLER_15_125
*1366 FILLER_15_149
*1367 FILLER_15_156
*1368 FILLER_15_163
*1369 FILLER_15_167
*1370 FILLER_15_169
*1371 FILLER_15_191
*1372 FILLER_15_20
*1373 FILLER_15_211
*1374 FILLER_15_218
*1375 FILLER_15_225
*1376 FILLER_15_236
*1377 FILLER_15_249
*1378 FILLER_15_262
*1379 FILLER_15_269
*1380 FILLER_15_278
*1381 FILLER_15_281
*1382 FILLER_15_294
*1383 FILLER_15_298
*1384 FILLER_15_3
*1385 FILLER_15_38
*1386 FILLER_15_54
*1387 FILLER_15_57
*1388 FILLER_15_76
*1389 FILLER_15_87
*1390 FILLER_16_104
*1391 FILLER_16_111
*1392 FILLER_16_135
*1393 FILLER_16_139
*1394 FILLER_16_141
*1395 FILLER_16_147
*1396 FILLER_16_157
*1397 FILLER_16_177
*1398 FILLER_16_194
*1399 FILLER_16_197
*1400 FILLER_16_21
*1401 FILLER_16_215
*1402 FILLER_16_222
*1403 FILLER_16_235
*1404 FILLER_16_250
*1405 FILLER_16_253
*1406 FILLER_16_27
*1407 FILLER_16_272
*1408 FILLER_16_280
*1409 FILLER_16_29
*1410 FILLER_16_297
*1411 FILLER_16_3
*1412 FILLER_16_41
*1413 FILLER_16_51
*1414 FILLER_16_58
*1415 FILLER_16_66
*1416 FILLER_16_71
*1417 FILLER_16_83
*1418 FILLER_16_85
*1419 FILLER_16_96
*1420 FILLER_17_100
*1421 FILLER_17_110
*1422 FILLER_17_113
*1423 FILLER_17_13
*1424 FILLER_17_133
*1425 FILLER_17_157
*1426 FILLER_17_166
*1427 FILLER_17_169
*1428 FILLER_17_175
*1429 FILLER_17_179
*1430 FILLER_17_203
*1431 FILLER_17_207
*1432 FILLER_17_217
*1433 FILLER_17_22
*1434 FILLER_17_223
*1435 FILLER_17_225
*1436 FILLER_17_243
*1437 FILLER_17_263
*1438 FILLER_17_276
*1439 FILLER_17_281
*1440 FILLER_17_292
*1441 FILLER_17_298
*1442 FILLER_17_3
*1443 FILLER_17_30
*1444 FILLER_17_34
*1445 FILLER_17_40
*1446 FILLER_17_47
*1447 FILLER_17_54
*1448 FILLER_17_57
*1449 FILLER_17_62
*1450 FILLER_17_68
*1451 FILLER_17_82
*1452 FILLER_17_89
*1453 FILLER_18_103
*1454 FILLER_18_111
*1455 FILLER_18_122
*1456 FILLER_18_135
*1457 FILLER_18_139
*1458 FILLER_18_141
*1459 FILLER_18_159
*1460 FILLER_18_172
*1461 FILLER_18_176
*1462 FILLER_18_186
*1463 FILLER_18_193
*1464 FILLER_18_197
*1465 FILLER_18_21
*1466 FILLER_18_210
*1467 FILLER_18_217
*1468 FILLER_18_225
*1469 FILLER_18_230
*1470 FILLER_18_237
*1471 FILLER_18_244
*1472 FILLER_18_253
*1473 FILLER_18_258
*1474 FILLER_18_266
*1475 FILLER_18_27
*1476 FILLER_18_284
*1477 FILLER_18_29
*1478 FILLER_18_297
*1479 FILLER_18_3
*1480 FILLER_18_34
*1481 FILLER_18_38
*1482 FILLER_18_46
*1483 FILLER_18_52
*1484 FILLER_18_69
*1485 FILLER_18_76
*1486 FILLER_18_85
*1487 FILLER_19_103
*1488 FILLER_19_110
*1489 FILLER_19_113
*1490 FILLER_19_131
*1491 FILLER_19_139
*1492 FILLER_19_14
*1493 FILLER_19_150
*1494 FILLER_19_162
*1495 FILLER_19_169
*1496 FILLER_19_180
*1497 FILLER_19_202
*1498 FILLER_19_215
*1499 FILLER_19_222
*1500 FILLER_19_225
*1501 FILLER_19_233
*1502 FILLER_19_253
*1503 FILLER_19_266
*1504 FILLER_19_270
*1505 FILLER_19_277
*1506 FILLER_19_281
*1507 FILLER_19_292
*1508 FILLER_19_298
*1509 FILLER_19_3
*1510 FILLER_19_34
*1511 FILLER_19_54
*1512 FILLER_19_57
*1513 FILLER_19_61
*1514 FILLER_19_70
*1515 FILLER_19_79
*1516 FILLER_19_9
*1517 FILLER_19_91
*1518 FILLER_19_96
*1519 FILLER_1_106
*1520 FILLER_1_113
*1521 FILLER_1_131
*1522 FILLER_1_139
*1523 FILLER_1_145
*1524 FILLER_1_149
*1525 FILLER_1_166
*1526 FILLER_1_169
*1527 FILLER_1_18
*1528 FILLER_1_181
*1529 FILLER_1_200
*1530 FILLER_1_220
*1531 FILLER_1_225
*1532 FILLER_1_249
*1533 FILLER_1_269
*1534 FILLER_1_276
*1535 FILLER_1_281
*1536 FILLER_1_286
*1537 FILLER_1_293
*1538 FILLER_1_3
*1539 FILLER_1_38
*1540 FILLER_1_49
*1541 FILLER_1_55
*1542 FILLER_1_57
*1543 FILLER_1_75
*1544 FILLER_1_86
*1545 FILLER_1_9
*1546 FILLER_20_103
*1547 FILLER_20_116
*1548 FILLER_20_136
*1549 FILLER_20_141
*1550 FILLER_20_146
*1551 FILLER_20_159
*1552 FILLER_20_16
*1553 FILLER_20_165
*1554 FILLER_20_182
*1555 FILLER_20_189
*1556 FILLER_20_195
*1557 FILLER_20_197
*1558 FILLER_20_202
*1559 FILLER_20_222
*1560 FILLER_20_242
*1561 FILLER_20_249
*1562 FILLER_20_253
*1563 FILLER_20_26
*1564 FILLER_20_271
*1565 FILLER_20_275
*1566 FILLER_20_29
*1567 FILLER_20_292
*1568 FILLER_20_298
*1569 FILLER_20_3
*1570 FILLER_20_41
*1571 FILLER_20_51
*1572 FILLER_20_62
*1573 FILLER_20_71
*1574 FILLER_20_81
*1575 FILLER_20_85
*1576 FILLER_21_109
*1577 FILLER_21_113