*SPEF "ieee 1481-1999"
*DESIGN "dratini0_fsk_modem_top"
*DATE "11:11:11 Fri 11 11, 1111"
*VENDOR "OpenRCX"
*PROGRAM "Parallel Extraction"
*VERSION "1.0"
*DESIGN_FLOW "NAME_SCOPE LOCAL" "PIN_CAP NONE"
*DIVIDER /
*DELIMITER :
*BUS_DELIMITER []
*T_UNIT 1 NS
*C_UNIT 1 PF
*R_UNIT 1 OHM
*L_UNIT 1 HENRY

*NAME_MAP
*1 io_in[0]
*2 io_in[1]
*3 io_in[2]
*4 io_in[3]
*5 io_in[4]
*6 io_in[5]
*7 io_in[6]
*8 io_in[7]
*9 io_out[0]
*10 io_out[1]
*11 io_out[2]
*12 io_out[3]
*13 io_out[4]
*14 io_out[5]
*15 io_out[6]
*16 io_out[7]
*19 _0000_
*20 _0001_
*21 _0002_
*22 _0003_
*23 _0004_
*24 _0005_
*25 _0006_
*26 _0007_
*27 _0008_
*28 _0009_
*29 _0010_
*30 _0011_
*31 _0012_
*32 _0013_
*33 _0014_
*34 _0015_
*35 _0016_
*36 _0017_
*37 _0018_
*38 _0019_
*39 _0020_
*40 _0021_
*41 _0022_
*42 _0023_
*43 _0024_
*44 _0025_
*45 _0026_
*46 _0027_
*47 _0028_
*48 _0029_
*49 _0030_
*50 _0031_
*51 _0032_
*52 _0033_
*53 _0034_
*54 _0035_
*55 _0036_
*56 _0037_
*57 _0038_
*58 _0039_
*59 _0040_
*60 _0041_
*61 _0042_
*62 _0043_
*63 _0044_
*64 _0045_
*65 _0046_
*66 _0047_
*67 _0048_
*68 _0049_
*69 _0050_
*70 _0051_
*71 _0052_
*72 _0053_
*73 _0054_
*74 _0055_
*75 _0056_
*76 _0057_
*77 _0058_
*78 _0059_
*79 _0060_
*80 _0061_
*81 _0062_
*82 _0063_
*83 _0064_
*84 _0065_
*85 _0066_
*86 _0067_
*87 _0068_
*88 _0069_
*89 _0070_
*90 _0071_
*91 _0072_
*92 _0073_
*93 _0074_
*94 _0075_
*95 _0076_
*96 _0077_
*97 _0078_
*98 _0079_
*99 _0080_
*100 _0081_
*101 _0082_
*102 _0083_
*103 _0084_
*104 _0085_
*105 _0086_
*106 _0087_
*107 _0088_
*108 _0089_
*109 _0090_
*110 _0091_
*111 _0092_
*112 _0093_
*113 _0094_
*114 _0095_
*115 _0096_
*116 _0097_
*117 _0098_
*118 _0099_
*119 _0100_
*120 _0101_
*121 _0102_
*122 _0103_
*123 _0104_
*124 _0105_
*125 _0106_
*126 _0107_
*127 _0108_
*128 _0109_
*129 _0110_
*130 _0111_
*131 _0112_
*132 _0113_
*133 _0114_
*134 _0115_
*135 _0116_
*136 _0117_
*137 _0118_
*138 _0119_
*139 _0120_
*140 _0121_
*141 _0122_
*142 _0123_
*143 _0124_
*144 _0125_
*145 _0126_
*146 _0127_
*147 _0128_
*148 _0129_
*149 _0130_
*150 _0131_
*151 _0132_
*152 _0133_
*153 _0134_
*154 _0135_
*155 _0136_
*156 _0137_
*157 _0138_
*158 _0139_
*159 _0140_
*160 _0141_
*161 _0142_
*162 _0143_
*163 _0144_
*164 _0145_
*165 _0146_
*166 _0147_
*167 _0148_
*168 _0149_
*169 _0150_
*170 _0151_
*171 _0152_
*172 _0153_
*173 _0154_
*174 _0155_
*175 _0156_
*176 _0157_
*177 _0158_
*178 _0159_
*179 _0160_
*180 _0161_
*181 _0162_
*182 _0163_
*183 _0164_
*184 _0165_
*185 _0166_
*186 _0167_
*187 _0168_
*188 _0169_
*189 _0170_
*190 _0171_
*191 _0172_
*192 _0173_
*193 _0174_
*194 _0175_
*195 _0176_
*196 _0177_
*197 _0178_
*198 _0179_
*199 _0180_
*200 _0181_
*201 _0182_
*202 _0183_
*203 _0184_
*204 _0185_
*205 _0186_
*206 _0187_
*207 _0188_
*208 _0189_
*209 _0190_
*210 _0191_
*211 _0192_
*212 _0193_
*213 _0194_
*214 _0195_
*215 _0196_
*216 _0197_
*217 _0198_
*218 _0199_
*219 _0200_
*220 _0201_
*221 _0202_
*222 _0203_
*223 _0204_
*224 _0205_
*225 _0206_
*226 _0207_
*227 _0208_
*228 _0209_
*229 _0210_
*230 _0211_
*231 _0212_
*232 _0213_
*233 _0214_
*234 _0215_
*235 _0216_
*236 _0217_
*237 _0218_
*238 _0219_
*239 _0220_
*240 _0221_
*241 _0222_
*242 _0223_
*243 _0224_
*244 _0225_
*245 _0226_
*246 _0227_
*247 _0228_
*248 _0229_
*249 _0230_
*250 _0231_
*251 _0232_
*252 _0233_
*253 _0234_
*254 _0235_
*255 _0236_
*256 _0237_
*257 _0238_
*258 _0239_
*259 _0240_
*260 _0241_
*261 _0242_
*262 _0243_
*263 _0244_
*264 _0245_
*265 _0246_
*266 _0247_
*267 _0248_
*268 _0249_
*269 _0250_
*270 _0251_
*271 _0252_
*272 _0253_
*273 _0254_
*274 _0255_
*275 _0256_
*276 _0257_
*277 _0258_
*278 _0259_
*279 _0260_
*280 _0261_
*281 _0262_
*282 _0263_
*283 _0264_
*284 _0265_
*285 _0266_
*286 _0267_
*287 _0268_
*288 _0269_
*289 _0270_
*290 _0271_
*291 _0272_
*292 _0273_
*293 _0274_
*294 _0275_
*295 _0276_
*296 _0277_
*297 _0278_
*298 _0279_
*299 _0280_
*300 _0281_
*301 _0282_
*302 _0283_
*303 _0284_
*304 _0285_
*305 _0286_
*306 _0287_
*307 _0288_
*308 _0289_
*309 _0290_
*310 _0291_
*311 _0292_
*312 _0293_
*313 _0294_
*314 _0295_
*315 _0296_
*316 _0297_
*317 _0298_
*318 _0299_
*319 _0300_
*320 _0301_
*321 _0302_
*322 _0303_
*323 _0304_
*324 _0305_
*325 _0306_
*326 _0307_
*327 _0308_
*328 _0309_
*329 _0310_
*330 _0311_
*331 _0312_
*332 _0313_
*333 _0314_
*334 _0315_
*335 _0316_
*336 _0317_
*337 _0318_
*338 _0319_
*339 _0320_
*340 _0321_
*341 _0322_
*342 _0323_
*343 _0324_
*344 _0325_
*345 _0326_
*346 _0327_
*347 _0328_
*348 _0329_
*349 _0330_
*350 _0331_
*351 _0332_
*352 _0333_
*353 _0334_
*354 _0335_
*355 _0336_
*356 _0337_
*357 _0338_
*358 _0339_
*359 _0340_
*360 _0341_
*361 _0342_
*362 _0343_
*363 _0344_
*364 _0345_
*365 _0346_
*366 _0347_
*367 _0348_
*368 _0349_
*369 _0350_
*370 _0351_
*371 _0352_
*372 _0353_
*373 _0354_
*374 _0355_
*375 _0356_
*376 _0357_
*377 _0358_
*378 _0359_
*379 _0360_
*380 _0361_
*381 _0362_
*382 _0363_
*383 _0364_
*384 _0365_
*385 _0366_
*386 _0367_
*387 _0368_
*388 _0369_
*389 _0370_
*390 _0371_
*391 _0372_
*392 _0373_
*393 _0374_
*394 _0375_
*395 _0376_
*396 _0377_
*397 _0378_
*398 _0379_
*399 _0380_
*400 _0381_
*401 _0382_
*402 _0383_
*403 _0384_
*404 _0385_
*405 _0386_
*406 _0387_
*407 _0388_
*408 _0389_
*409 _0390_
*410 _0391_
*411 _0392_
*412 _0393_
*413 _0394_
*414 _0395_
*415 _0396_
*416 _0397_
*417 _0398_
*418 _0399_
*419 _0400_
*420 _0401_
*421 _0402_
*422 _0403_
*423 _0404_
*424 _0405_
*425 _0406_
*426 _0407_
*427 _0408_
*428 _0409_
*429 _0410_
*430 _0411_
*431 _0412_
*432 _0413_
*433 _0414_
*434 _0415_
*435 _0416_
*436 _0417_
*437 _0418_
*438 _0419_
*439 _0420_
*440 _0421_
*441 _0422_
*442 _0423_
*443 _0424_
*444 _0425_
*445 _0426_
*446 _0427_
*447 _0428_
*448 _0429_
*449 _0430_
*450 _0431_
*451 _0432_
*452 _0433_
*453 _0434_
*454 _0435_
*455 _0436_
*456 _0437_
*457 _0438_
*458 _0439_
*459 _0440_
*460 _0441_
*461 _0442_
*462 _0443_
*463 _0444_
*464 _0445_
*465 _0446_
*466 _0447_
*467 _0448_
*468 _0449_
*469 _0450_
*470 _0451_
*471 _0452_
*472 _0453_
*473 _0454_
*474 _0455_
*475 _0456_
*476 _0457_
*477 _0458_
*478 _0459_
*479 _0460_
*480 _0461_
*481 _0462_
*482 _0463_
*483 _0464_
*484 _0465_
*485 _0466_
*486 _0467_
*487 _0468_
*488 _0469_
*489 _0470_
*490 _0471_
*491 _0472_
*492 _0473_
*493 _0474_
*494 _0475_
*495 _0476_
*496 _0477_
*497 _0478_
*498 _0479_
*499 _0480_
*500 _0481_
*501 _0482_
*502 _0483_
*503 _0484_
*504 _0485_
*505 _0486_
*506 _0487_
*507 _0488_
*508 _0489_
*509 _0490_
*510 _0491_
*511 _0492_
*512 _0493_
*513 _0494_
*514 _0495_
*515 _0496_
*516 _0497_
*517 _0498_
*518 _0499_
*519 _0500_
*520 _0501_
*521 _0502_
*522 _0503_
*523 _0504_
*524 _0505_
*525 _0506_
*526 _0507_
*527 _0508_
*528 _0509_
*529 _0510_
*530 _0511_
*531 _0512_
*532 _0513_
*533 _0514_
*534 _0515_
*535 _0516_
*536 _0517_
*537 _0518_
*538 _0519_
*539 _0520_
*540 _0521_
*541 _0522_
*542 _0523_
*543 _0524_
*544 _0525_
*545 _0526_
*546 _0527_
*547 _0528_
*548 _0529_
*549 _0530_
*550 _0531_
*551 _0532_
*552 _0533_
*553 _0534_
*554 _0535_
*555 _0536_
*556 _0537_
*557 _0538_
*558 _0539_
*559 _0540_
*560 _0541_
*561 _0542_
*562 _0543_
*563 _0544_
*564 _0545_
*565 _0546_
*566 _0547_
*567 _0548_
*568 _0549_
*569 _0550_
*570 _0551_
*571 _0552_
*572 _0553_
*573 _0554_
*574 _0555_
*575 _0556_
*576 _0557_
*577 _0558_
*578 _0559_
*579 _0560_
*580 _0561_
*581 _0562_
*582 _0563_
*583 _0564_
*584 _0565_
*585 _0566_
*586 _0567_
*587 _0568_
*588 _0569_
*589 _0570_
*590 _0571_
*591 _0572_
*592 _0573_
*593 _0574_
*594 _0575_
*595 _0576_
*596 _0577_
*597 _0578_
*598 _0579_
*599 _0580_
*600 _0581_
*601 _0582_
*602 _0583_
*603 _0584_
*604 _0585_
*605 _0586_
*606 _0587_
*607 _0588_
*608 _0589_
*609 _0590_
*610 _0591_
*611 _0592_
*612 _0593_
*613 _0594_
*614 _0595_
*615 _0596_
*616 _0597_
*617 _0598_
*618 _0599_
*619 _0600_
*620 _0601_
*621 _0602_
*622 _0603_
*623 _0604_
*624 _0605_
*625 _0606_
*626 _0607_
*627 _0608_
*628 _0609_
*629 _0610_
*630 _0611_
*631 _0612_
*632 _0613_
*633 _0614_
*634 _0615_
*635 _0616_
*636 _0617_
*637 _0618_
*638 _0619_
*639 _0620_
*640 _0621_
*641 _0622_
*642 _0623_
*643 _0624_
*644 _0625_
*645 _0626_
*646 _0627_
*647 _0628_
*648 _0629_
*649 _0630_
*650 _0631_
*651 _0632_
*652 _0633_
*653 _0634_
*654 _0635_
*655 _0636_
*656 _0637_
*657 _0638_
*658 _0639_
*659 _0640_
*660 _0641_
*661 _0642_
*662 _0643_
*663 _0644_
*664 _0645_
*665 _0646_
*666 _0647_
*667 _0648_
*668 _0649_
*669 _0650_
*670 _0651_
*671 _0652_
*672 _0653_
*673 _0654_
*674 _0655_
*675 _0656_
*676 _0657_
*677 _0658_
*678 _0659_
*679 _0660_
*680 _0661_
*681 _0662_
*682 _0663_
*683 _0664_
*684 _0665_
*685 _0666_
*686 _0667_
*687 _0668_
*688 _0669_
*689 _0670_
*690 _0671_
*691 _0672_
*692 _0673_
*693 _0674_
*694 _0675_
*695 _0676_
*696 _0677_
*697 _0678_
*698 _0679_
*699 _0680_
*700 _0681_
*701 _0682_
*702 _0683_
*703 _0684_
*704 _0685_
*705 _0686_
*706 _0687_
*707 _0688_
*708 _0689_
*709 _0690_
*710 _0691_
*711 _0692_
*712 _0693_
*713 _0694_
*714 _0695_
*715 _0696_
*716 _0697_
*717 _0698_
*718 _0699_
*719 _0700_
*720 _0701_
*721 _0702_
*722 _0703_
*723 _0704_
*724 _0705_
*725 _0706_
*726 _0707_
*727 _0708_
*728 _0709_
*729 _0710_
*730 _0711_
*731 _0712_
*732 _0713_
*733 _0714_
*734 _0715_
*735 _0716_
*736 _0717_
*737 _0718_
*738 _0719_
*739 _0720_
*740 _0721_
*741 _0722_
*742 _0723_
*743 _0724_
*744 _0725_
*745 _0726_
*746 _0727_
*747 _0728_
*748 _0729_
*749 _0730_
*750 _0731_
*751 _0732_
*752 _0733_
*753 _0734_
*754 _0735_
*755 _0736_
*756 _0737_
*757 _0738_
*758 _0739_
*759 _0740_
*760 _0741_
*761 _0742_
*762 _0743_
*763 _0744_
*764 _0745_
*765 _0746_
*766 _0747_
*767 _0748_
*768 _0749_
*769 _0750_
*770 _0751_
*771 _0752_
*772 _0753_
*773 _0754_
*774 _0755_
*775 _0756_
*776 _0757_
*777 _0758_
*778 _0759_
*779 _0760_
*780 _0761_
*781 _0762_
*782 _0763_
*783 _0764_
*784 _0765_
*785 _0766_
*786 _0767_
*787 _0768_
*788 _0769_
*789 _0770_
*790 _0771_
*791 _0772_
*792 _0773_
*793 _0774_
*794 _0775_
*795 _0776_
*796 _0777_
*797 _0778_
*798 _0779_
*799 _0780_
*800 _0781_
*801 _0782_
*802 _0783_
*803 _0784_
*804 _0785_
*805 _0786_
*806 _0787_
*807 _0788_
*808 _0789_
*809 _0790_
*810 _0791_
*811 _0792_
*812 _0793_
*813 _0794_
*814 _0795_
*815 _0796_
*816 _0797_
*817 _0798_
*818 _0799_
*819 _0800_
*820 _0801_
*821 _0802_
*822 _0803_
*823 _0804_
*824 _0805_
*825 _0806_
*826 _0807_
*827 _0808_
*828 _0809_
*829 _0810_
*830 _0811_
*831 _0812_
*832 _0813_
*833 _0814_
*834 _0815_
*835 _0816_
*836 _0817_
*837 _0818_
*838 _0819_
*839 _0820_
*840 _0821_
*841 _0822_
*842 _0823_
*843 _0824_
*844 _0825_
*845 _0826_
*846 _0827_
*847 _0828_
*848 _0829_
*849 _0830_
*850 _0831_
*851 _0832_
*852 _0833_
*853 _0834_
*854 _0835_
*855 _0836_
*856 _0837_
*857 _0838_
*858 _0839_
*859 _0840_
*860 _0841_
*861 _0842_
*862 _0843_
*863 _0844_
*864 _0845_
*865 _0846_
*866 _0847_
*867 _0848_
*868 _0849_
*869 _0850_
*870 _0851_
*871 _0852_
*872 _0853_
*873 _0854_
*874 _0855_
*875 _0856_
*876 _0857_
*877 _0858_
*878 _0859_
*879 _0860_
*880 _0861_
*881 _0862_
*882 _0863_
*883 _0864_
*884 _0865_
*885 _0866_
*886 _0867_
*887 _0868_
*888 _0869_
*889 _0870_
*890 _0871_
*891 _0872_
*892 _0873_
*893 _0874_
*894 _0875_
*895 _0876_
*896 _0877_
*897 _0878_
*898 _0879_
*899 _0880_
*900 _0881_
*901 _0882_
*902 _0883_
*903 _0884_
*904 _0885_
*905 _0886_
*906 _0887_
*907 _0888_
*908 _0889_
*909 _0890_
*910 _0891_
*911 _0892_
*912 _0893_
*913 _0894_
*914 _0895_
*915 _0896_
*916 clknet_0_io_in[0]
*917 clknet_4_0_0_io_in[0]
*918 clknet_4_10_0_io_in[0]
*919 clknet_4_11_0_io_in[0]
*920 clknet_4_12_0_io_in[0]
*921 clknet_4_13_0_io_in[0]
*922 clknet_4_14_0_io_in[0]
*923 clknet_4_15_0_io_in[0]
*924 clknet_4_1_0_io_in[0]
*925 clknet_4_2_0_io_in[0]
*926 clknet_4_3_0_io_in[0]
*927 clknet_4_4_0_io_in[0]
*928 clknet_4_5_0_io_in[0]
*929 clknet_4_6_0_io_in[0]
*930 clknet_4_7_0_io_in[0]
*931 clknet_4_8_0_io_in[0]
*932 clknet_4_9_0_io_in[0]
*933 fsk_modem\.\$15
*934 fsk_modem\.registers\.enforce_validity
*935 fsk_modem\.registers\.frequency_invert
*936 fsk_modem\.registers\.mixer_freq\[0\]
*937 fsk_modem\.registers\.mixer_freq\[10\]
*938 fsk_modem\.registers\.mixer_freq\[11\]
*939 fsk_modem\.registers\.mixer_freq\[1\]
*940 fsk_modem\.registers\.mixer_freq\[2\]
*941 fsk_modem\.registers\.mixer_freq\[3\]
*942 fsk_modem\.registers\.mixer_freq\[4\]
*943 fsk_modem\.registers\.mixer_freq\[5\]
*944 fsk_modem\.registers\.mixer_freq\[6\]
*945 fsk_modem\.registers\.mixer_freq\[7\]
*946 fsk_modem\.registers\.mixer_freq\[8\]
*947 fsk_modem\.registers\.mixer_freq\[9\]
*948 fsk_modem\.registers\.wg1_freq_mark\[0\]
*949 fsk_modem\.registers\.wg1_freq_mark\[10\]
*950 fsk_modem\.registers\.wg1_freq_mark\[11\]
*951 fsk_modem\.registers\.wg1_freq_mark\[1\]
*952 fsk_modem\.registers\.wg1_freq_mark\[2\]
*953 fsk_modem\.registers\.wg1_freq_mark\[3\]
*954 fsk_modem\.registers\.wg1_freq_mark\[4\]
*955 fsk_modem\.registers\.wg1_freq_mark\[5\]
*956 fsk_modem\.registers\.wg1_freq_mark\[6\]
*957 fsk_modem\.registers\.wg1_freq_mark\[7\]
*958 fsk_modem\.registers\.wg1_freq_mark\[8\]
*959 fsk_modem\.registers\.wg1_freq_mark\[9\]
*960 fsk_modem\.registers\.wg1_freq_space\[0\]
*961 fsk_modem\.registers\.wg1_freq_space\[10\]
*962 fsk_modem\.registers\.wg1_freq_space\[11\]
*963 fsk_modem\.registers\.wg1_freq_space\[1\]
*964 fsk_modem\.registers\.wg1_freq_space\[2\]
*965 fsk_modem\.registers\.wg1_freq_space\[3\]
*966 fsk_modem\.registers\.wg1_freq_space\[4\]
*967 fsk_modem\.registers\.wg1_freq_space\[5\]
*968 fsk_modem\.registers\.wg1_freq_space\[6\]
*969 fsk_modem\.registers\.wg1_freq_space\[7\]
*970 fsk_modem\.registers\.wg1_freq_space\[8\]
*971 fsk_modem\.registers\.wg1_freq_space\[9\]
*972 fsk_modem\.registers\.wg2_freq\[0\]
*973 fsk_modem\.registers\.wg2_freq\[10\]
*974 fsk_modem\.registers\.wg2_freq\[11\]
*975 fsk_modem\.registers\.wg2_freq\[1\]
*976 fsk_modem\.registers\.wg2_freq\[2\]
*977 fsk_modem\.registers\.wg2_freq\[3\]
*978 fsk_modem\.registers\.wg2_freq\[4\]
*979 fsk_modem\.registers\.wg2_freq\[5\]
*980 fsk_modem\.registers\.wg2_freq\[6\]
*981 fsk_modem\.registers\.wg2_freq\[7\]
*982 fsk_modem\.registers\.wg2_freq\[8\]
*983 fsk_modem\.registers\.wg2_freq\[9\]
*984 fsk_modem\.registers\.wg_mux_cfg\[0\]
*985 fsk_modem\.registers\.wg_mux_cfg\[1\]
*986 fsk_modem\.rx\.glitch_filter\._count\[0\]
*987 fsk_modem\.rx\.glitch_filter\._count\[1\]
*988 fsk_modem\.rx\.glitch_filter\.out
*989 fsk_modem\.rx\.i_filter\._x\[0\]
*990 fsk_modem\.rx\.i_filter\._x\[10\]
*991 fsk_modem\.rx\.i_filter\._x\[11\]
*992 fsk_modem\.rx\.i_filter\._x\[12\]
*993 fsk_modem\.rx\.i_filter\._x\[13\]
*994 fsk_modem\.rx\.i_filter\._x\[14\]
*995 fsk_modem\.rx\.i_filter\._x\[15\]
*996 fsk_modem\.rx\.i_filter\._x\[16\]
*997 fsk_modem\.rx\.i_filter\._x\[17\]
*998 fsk_modem\.rx\.i_filter\._x\[18\]
*999 fsk_modem\.rx\.i_filter\._x\[19\]
*1000 fsk_modem\.rx\.i_filter\._x\[1\]
*1001 fsk_modem\.rx\.i_filter\._x\[20\]
*1002 fsk_modem\.rx\.i_filter\._x\[21\]
*1003 fsk_modem\.rx\.i_filter\._x\[22\]
*1004 fsk_modem\.rx\.i_filter\._x\[23\]
*1005 fsk_modem\.rx\.i_filter\._x\[24\]
*1006 fsk_modem\.rx\.i_filter\._x\[25\]
*1007 fsk_modem\.rx\.i_filter\._x\[26\]
*1008 fsk_modem\.rx\.i_filter\._x\[27\]
*1009 fsk_modem\.rx\.i_filter\._x\[28\]
*1010 fsk_modem\.rx\.i_filter\._x\[29\]
*1011 fsk_modem\.rx\.i_filter\._x\[2\]
*1012 fsk_modem\.rx\.i_filter\._x\[3\]
*1013 fsk_modem\.rx\.i_filter\._x\[4\]
*1014 fsk_modem\.rx\.i_filter\._x\[5\]
*1015 fsk_modem\.rx\.i_filter\._x\[6\]
*1016 fsk_modem\.rx\.i_filter\._x\[7\]
*1017 fsk_modem\.rx\.i_filter\._x\[8\]
*1018 fsk_modem\.rx\.i_filter\._x\[9\]
*1019 fsk_modem\.rx\.i_filter\.in_
*1020 fsk_modem\.rx\.mixer\._phase\$next\[0\]
*1021 fsk_modem\.rx\.mixer\._phase\$next\[10\]
*1022 fsk_modem\.rx\.mixer\._phase\$next\[11\]
*1023 fsk_modem\.rx\.mixer\._phase\$next\[12\]
*1024 fsk_modem\.rx\.mixer\._phase\$next\[13\]
*1025 fsk_modem\.rx\.mixer\._phase\$next\[1\]
*1026 fsk_modem\.rx\.mixer\._phase\$next\[2\]
*1027 fsk_modem\.rx\.mixer\._phase\$next\[3\]
*1028 fsk_modem\.rx\.mixer\._phase\$next\[4\]
*1029 fsk_modem\.rx\.mixer\._phase\$next\[5\]
*1030 fsk_modem\.rx\.mixer\._phase\$next\[6\]
*1031 fsk_modem\.rx\.mixer\._phase\$next\[7\]
*1032 fsk_modem\.rx\.mixer\._phase\$next\[8\]
*1033 fsk_modem\.rx\.mixer\._phase\$next\[9\]
*1034 fsk_modem\.rx\.mixer\._phase\[0\]
*1035 fsk_modem\.rx\.mixer\._phase\[10\]
*1036 fsk_modem\.rx\.mixer\._phase\[11\]
*1037 fsk_modem\.rx\.mixer\._phase\[12\]
*1038 fsk_modem\.rx\.mixer\._phase\[13\]
*1039 fsk_modem\.rx\.mixer\._phase\[1\]
*1040 fsk_modem\.rx\.mixer\._phase\[2\]
*1041 fsk_modem\.rx\.mixer\._phase\[3\]
*1042 fsk_modem\.rx\.mixer\._phase\[4\]
*1043 fsk_modem\.rx\.mixer\._phase\[5\]
*1044 fsk_modem\.rx\.mixer\._phase\[6\]
*1045 fsk_modem\.rx\.mixer\._phase\[7\]
*1046 fsk_modem\.rx\.mixer\._phase\[8\]
*1047 fsk_modem\.rx\.mixer\._phase\[9\]
*1048 fsk_modem\.rx\.mixer\.q
*1049 fsk_modem\.rx\.phase_detector\.phase\[0\]
*1050 fsk_modem\.rx\.phase_detector\.phase\[1\]
*1051 fsk_modem\.rx\.phase_detector\.phase\[2\]
*1052 fsk_modem\.rx\.phase_differentiator\._last_phase\[0\]
*1053 fsk_modem\.rx\.phase_differentiator\._last_phase\[1\]
*1054 fsk_modem\.rx\.phase_differentiator\._last_phase\[2\]
*1055 fsk_modem\.rx\.phase_differentiator\._valid_counter\[0\]
*1056 fsk_modem\.rx\.phase_differentiator\._valid_counter\[1\]
*1057 fsk_modem\.rx\.phase_differentiator\._valid_counter\[2\]
*1058 fsk_modem\.rx\.phase_differentiator\._valid_counter\[3\]
*1059 fsk_modem\.rx\.phase_differentiator\._valid_counter\[4\]
*1060 fsk_modem\.rx\.phase_differentiator\._valid_counter\[5\]
*1061 fsk_modem\.rx\.phase_differentiator\._valid_counter\[6\]
*1062 fsk_modem\.rx\.phase_differentiator\._valid_counter\[7\]
*1063 fsk_modem\.rx\.phase_differentiator\._valid_counter\[8\]
*1064 fsk_modem\.rx\.phase_differentiator\._valid_counter\[9\]
*1065 fsk_modem\.rx\.phase_differentiator\.out
*1066 fsk_modem\.rx\.phase_differentiator\.valid
*1067 fsk_modem\.rx\.q_filter\._x\[0\]
*1068 fsk_modem\.rx\.q_filter\._x\[10\]
*1069 fsk_modem\.rx\.q_filter\._x\[11\]
*1070 fsk_modem\.rx\.q_filter\._x\[12\]
*1071 fsk_modem\.rx\.q_filter\._x\[13\]
*1072 fsk_modem\.rx\.q_filter\._x\[14\]
*1073 fsk_modem\.rx\.q_filter\._x\[15\]
*1074 fsk_modem\.rx\.q_filter\._x\[16\]
*1075 fsk_modem\.rx\.q_filter\._x\[17\]
*1076 fsk_modem\.rx\.q_filter\._x\[18\]
*1077 fsk_modem\.rx\.q_filter\._x\[19\]
*1078 fsk_modem\.rx\.q_filter\._x\[1\]
*1079 fsk_modem\.rx\.q_filter\._x\[20\]
*1080 fsk_modem\.rx\.q_filter\._x\[21\]
*1081 fsk_modem\.rx\.q_filter\._x\[22\]
*1082 fsk_modem\.rx\.q_filter\._x\[23\]
*1083 fsk_modem\.rx\.q_filter\._x\[24\]
*1084 fsk_modem\.rx\.q_filter\._x\[25\]
*1085 fsk_modem\.rx\.q_filter\._x\[26\]
*1086 fsk_modem\.rx\.q_filter\._x\[27\]
*1087 fsk_modem\.rx\.q_filter\._x\[28\]
*1088 fsk_modem\.rx\.q_filter\._x\[29\]
*1089 fsk_modem\.rx\.q_filter\._x\[2\]
*1090 fsk_modem\.rx\.q_filter\._x\[3\]
*1091 fsk_modem\.rx\.q_filter\._x\[4\]
*1092 fsk_modem\.rx\.q_filter\._x\[5\]
*1093 fsk_modem\.rx\.q_filter\._x\[6\]
*1094 fsk_modem\.rx\.q_filter\._x\[7\]
*1095 fsk_modem\.rx\.q_filter\._x\[8\]
*1096 fsk_modem\.rx\.q_filter\._x\[9\]
*1097 fsk_modem\.spi\.\$25
*1098 fsk_modem\.spi\._bit_index\[0\]
*1099 fsk_modem\.spi\._bit_index\[1\]
*1100 fsk_modem\.spi\._bit_index\[2\]
*1101 fsk_modem\.spi\.data\[0\]
*1102 fsk_modem\.spi\.data\[1\]
*1103 fsk_modem\.spi\.data\[2\]
*1104 fsk_modem\.spi\.data\[3\]
*1105 fsk_modem\.spi\.data\[4\]
*1106 fsk_modem\.spi\.data\[5\]
*1107 fsk_modem\.spi\.data\[6\]
*1108 fsk_modem\.spi\.data\[7\]
*1109 fsk_modem\.spi\.sck_edge\.last_in
*1110 fsk_modem\.spi\.we
*1111 fsk_modem\.wg1\._state\$next\[0\]
*1112 fsk_modem\.wg1\._state\$next\[10\]
*1113 fsk_modem\.wg1\._state\$next\[11\]
*1114 fsk_modem\.wg1\._state\$next\[12\]
*1115 fsk_modem\.wg1\._state\$next\[13\]
*1116 fsk_modem\.wg1\._state\$next\[1\]
*1117 fsk_modem\.wg1\._state\$next\[2\]
*1118 fsk_modem\.wg1\._state\$next\[3\]
*1119 fsk_modem\.wg1\._state\$next\[4\]
*1120 fsk_modem\.wg1\._state\$next\[5\]
*1121 fsk_modem\.wg1\._state\$next\[6\]
*1122 fsk_modem\.wg1\._state\$next\[7\]
*1123 fsk_modem\.wg1\._state\$next\[8\]
*1124 fsk_modem\.wg1\._state\$next\[9\]
*1125 fsk_modem\.wg1\._state\[0\]
*1126 fsk_modem\.wg1\._state\[10\]
*1127 fsk_modem\.wg1\._state\[11\]
*1128 fsk_modem\.wg1\._state\[12\]
*1129 fsk_modem\.wg1\._state\[13\]
*1130 fsk_modem\.wg1\._state\[1\]
*1131 fsk_modem\.wg1\._state\[2\]
*1132 fsk_modem\.wg1\._state\[3\]
*1133 fsk_modem\.wg1\._state\[4\]
*1134 fsk_modem\.wg1\._state\[5\]
*1135 fsk_modem\.wg1\._state\[6\]
*1136 fsk_modem\.wg1\._state\[7\]
*1137 fsk_modem\.wg1\._state\[8\]
*1138 fsk_modem\.wg1\._state\[9\]
*1139 fsk_modem\.wg2\._state\$next\[0\]
*1140 fsk_modem\.wg2\._state\$next\[10\]
*1141 fsk_modem\.wg2\._state\$next\[11\]
*1142 fsk_modem\.wg2\._state\$next\[12\]
*1143 fsk_modem\.wg2\._state\$next\[13\]
*1144 fsk_modem\.wg2\._state\$next\[1\]
*1145 fsk_modem\.wg2\._state\$next\[2\]
*1146 fsk_modem\.wg2\._state\$next\[3\]
*1147 fsk_modem\.wg2\._state\$next\[4\]
*1148 fsk_modem\.wg2\._state\$next\[5\]
*1149 fsk_modem\.wg2\._state\$next\[6\]
*1150 fsk_modem\.wg2\._state\$next\[7\]
*1151 fsk_modem\.wg2\._state\$next\[8\]
*1152 fsk_modem\.wg2\._state\$next\[9\]
*1153 fsk_modem\.wg2\._state\[0\]
*1154 fsk_modem\.wg2\._state\[10\]
*1155 fsk_modem\.wg2\._state\[11\]
*1156 fsk_modem\.wg2\._state\[12\]
*1157 fsk_modem\.wg2\._state\[13\]
*1158 fsk_modem\.wg2\._state\[1\]
*1159 fsk_modem\.wg2\._state\[2\]
*1160 fsk_modem\.wg2\._state\[3\]
*1161 fsk_modem\.wg2\._state\[4\]
*1162 fsk_modem\.wg2\._state\[5\]
*1163 fsk_modem\.wg2\._state\[6\]
*1164 fsk_modem\.wg2\._state\[7\]
*1165 fsk_modem\.wg2\._state\[8\]
*1166 fsk_modem\.wg2\._state\[9\]
*1167 net1
*1168 net10
*1169 net2
*1170 net3
*1171 net4
*1172 net5
*1173 net6
*1174 net7
*1175 net8
*1176 net9
*1177 ANTENNA_1
*1178 ANTENNA_10
*1179 ANTENNA_11
*1180 ANTENNA_12
*1181 ANTENNA_13
*1182 ANTENNA_14
*1183 ANTENNA_15
*1184 ANTENNA_16
*1185 ANTENNA_17
*1186 ANTENNA_18
*1187 ANTENNA_19
*1188 ANTENNA_2
*1189 ANTENNA_20
*1190 ANTENNA_21
*1191 ANTENNA_22
*1192 ANTENNA_23
*1193 ANTENNA_24
*1194 ANTENNA_25
*1195 ANTENNA_26
*1196 ANTENNA_27
*1197 ANTENNA_28
*1198 ANTENNA_29
*1199 ANTENNA_3
*1200 ANTENNA_30
*1201 ANTENNA_31
*1202 ANTENNA_32
*1203 ANTENNA_33
*1204 ANTENNA_34
*1205 ANTENNA_4
*1206 ANTENNA_5
*1207 ANTENNA_6
*1208 ANTENNA_7
*1209 ANTENNA_8
*1210 ANTENNA_9
*1211 FILLER_0_103
*1212 FILLER_0_110
*1213 FILLER_0_113
*1214 FILLER_0_126
*1215 FILLER_0_135
*1216 FILLER_0_139
*1217 FILLER_0_141
*1218 FILLER_0_146
*1219 FILLER_0_158
*1220 FILLER_0_166
*1221 FILLER_0_169
*1222 FILLER_0_180
*1223 FILLER_0_184
*1224 FILLER_0_190
*1225 FILLER_0_197
*1226 FILLER_0_205
*1227 FILLER_0_21
*1228 FILLER_0_213
*1229 FILLER_0_222
*1230 FILLER_0_225
*1231 FILLER_0_230
*1232 FILLER_0_243
*1233 FILLER_0_25
*1234 FILLER_0_250
*1235 FILLER_0_253
*1236 FILLER_0_263
*1237 FILLER_0_272
*1238 FILLER_0_281
*1239 FILLER_0_29
*1240 FILLER_0_293
*1241 FILLER_0_3
*1242 FILLER_0_47
*1243 FILLER_0_54
*1244 FILLER_0_57
*1245 FILLER_0_63
*1246 FILLER_0_80
*1247 FILLER_0_85
*1248 FILLER_0_94
*1249 FILLER_10_104
*1250 FILLER_10_108
*1251 FILLER_10_127
*1252 FILLER_10_134
*1253 FILLER_10_141
*1254 FILLER_10_146
*1255 FILLER_10_156
*1256 FILLER_10_176
*1257 FILLER_10_185
*1258 FILLER_10_192
*1259 FILLER_10_197
*1260 FILLER_10_203
*1261 FILLER_10_21
*1262 FILLER_10_211
*1263 FILLER_10_230
*1264 FILLER_10_236
*1265 FILLER_10_250
*1266 FILLER_10_253
*1267 FILLER_10_262
*1268 FILLER_10_27
*1269 FILLER_10_270
*1270 FILLER_10_278
*1271 FILLER_10_285
*1272 FILLER_10_29
*1273 FILLER_10_297
*1274 FILLER_10_3
*1275 FILLER_10_37
*1276 FILLER_10_54
*1277 FILLER_10_76
*1278 FILLER_10_85
*1279 FILLER_11_110
*1280 FILLER_11_113
*1281 FILLER_11_118
*1282 FILLER_11_125
*1283 FILLER_11_132
*1284 FILLER_11_145
*1285 FILLER_11_158
*1286 FILLER_11_166
*1287 FILLER_11_169
*1288 FILLER_11_178
*1289 FILLER_11_185
*1290 FILLER_11_200
*1291 FILLER_11_208
*1292 FILLER_11_218
*1293 FILLER_11_225
*1294 FILLER_11_240
*1295 FILLER_11_247
*1296 FILLER_11_253
*1297 FILLER_11_259
*1298 FILLER_11_269
*1299 FILLER_11_278
*1300 FILLER_11_281
*1301 FILLER_11_288
*1302 FILLER_11_296
*1303 FILLER_11_3
*1304 FILLER_11_31
*1305 FILLER_11_35
*1306 FILLER_11_52
*1307 FILLER_11_57
*1308 FILLER_11_65
*1309 FILLER_11_68
*1310 FILLER_11_87
*1311 FILLER_11_93
*1312 FILLER_12_103
*1313 FILLER_12_116
*1314 FILLER_12_122
*1315 FILLER_12_126
*1316 FILLER_12_133
*1317 FILLER_12_139
*1318 FILLER_12_141
*1319 FILLER_12_159
*1320 FILLER_12_172
*1321 FILLER_12_178
*1322 FILLER_12_188
*1323 FILLER_12_197
*1324 FILLER_12_204
*1325 FILLER_12_208
*1326 FILLER_12_216
*1327 FILLER_12_22
*1328 FILLER_12_220
*1329 FILLER_12_229
*1330 FILLER_12_235
*1331 FILLER_12_243
*1332 FILLER_12_250
*1333 FILLER_12_253
*1334 FILLER_12_261
*1335 FILLER_12_274
*1336 FILLER_12_29
*1337 FILLER_12_291
*1338 FILLER_12_3
*1339 FILLER_12_40
*1340 FILLER_12_60
*1341 FILLER_12_82
*1342 FILLER_12_85
*1343 FILLER_13_109
*1344 FILLER_13_113
*1345 FILLER_13_119
*1346 FILLER_13_12
*1347 FILLER_13_139
*1348 FILLER_13_147
*1349 FILLER_13_157
*1350 FILLER_13_16
*1351 FILLER_13_161
*1352 FILLER_13_165
*1353 FILLER_13_169
*1354 FILLER_13_177
*1355 FILLER_13_184
*1356 FILLER_13_195
*1357 FILLER_13_207
*1358 FILLER_13_216
*1359 FILLER_13_225
*1360 FILLER_13_230
*1361 FILLER_13_238
*1362 FILLER_13_247
*1363 FILLER_13_266
*1364 FILLER_13_274
*1365 FILLER_13_278
*1366 FILLER_13_281
*1367 FILLER_13_297
*1368 FILLER_13_3
*1369 FILLER_13_35
*1370 FILLER_13_50
*1371 FILLER_13_57
*1372 FILLER_13_70
*1373 FILLER_13_76
*1374 FILLER_13_94
*1375 FILLER_14_105
*1376 FILLER_14_124
*1377 FILLER_14_133
*1378 FILLER_14_139
*1379 FILLER_14_141
*1380 FILLER_14_147
*1381 FILLER_14_164
*1382 FILLER_14_176
*1383 FILLER_14_182
*1384 FILLER_14_192
*1385 FILLER_14_197
*1386 FILLER_14_202
*1387 FILLER_14_209
*1388 FILLER_14_216
*1389 FILLER_14_222
*1390 FILLER_14_230
*1391 FILLER_14_238
*1392 FILLER_14_246
*1393 FILLER_14_25
*1394 FILLER_14_253
*1395 FILLER_14_258
*1396 FILLER_14_262
*1397 FILLER_14_272
*1398 FILLER_14_279
*1399 FILLER_14_283
*1400 FILLER_14_29
*1401 FILLER_14_291
*1402 FILLER_14_3
*1403 FILLER_14_47
*1404 FILLER_14_59
*1405 FILLER_14_7
*1406 FILLER_14_79
*1407 FILLER_14_83
*1408 FILLER_14_85
*1409 FILLER_15_100
*1410 FILLER_15_110
*1411 FILLER_15_113
*1412 FILLER_15_133
*1413 FILLER_15_141
*1414 FILLER_15_152
*1415 FILLER_15_166
*1416 FILLER_15_169
*1417 FILLER_15_179
*1418 FILLER_15_205
*1419 FILLER_15_216
*1420 FILLER_15_225
*1421 FILLER_15_234
*1422 FILLER_15_241
*1423 FILLER_15_248
*1424 FILLER_15_25
*1425 FILLER_15_260
*1426 FILLER_15_268
*1427 FILLER_15_271
*1428 FILLER_15_278
*1429 FILLER_15_281
*1430 FILLER_15_297
*1431 FILLER_15_3
*1432 FILLER_15_31
*1433 FILLER_15_48
*1434 FILLER_15_57
*1435 FILLER_15_7
*1436 FILLER_15_70
*1437 FILLER_15_92
*1438 FILLER_16_102
*1439 FILLER_16_106
*1440 FILLER_16_113
*1441 FILLER_16_126
*1442 FILLER_16_132
*1443 FILLER_16_136
*1444 FILLER_16_141
*1445 FILLER_16_160
*1446 FILLER_16_167
*1447 FILLER_16_179
*1448 FILLER_16_193
*1449 FILLER_16_197
*1450 FILLER_16_201
*1451 FILLER_16_207
*1452 FILLER_16_21
*1453 FILLER_16_214
*1454 FILLER_16_218
*1455 FILLER_16_225
*1456 FILLER_16_232
*1457 FILLER_16_244
*1458 FILLER_16_253
*1459 FILLER_16_262
*1460 FILLER_16_27
*1461 FILLER_16_273
*1462 FILLER_16_29
*1463 FILLER_16_290
*1464 FILLER_16_297
*1465 FILLER_16_3
*1466 FILLER_16_47
*1467 FILLER_16_67
*1468 FILLER_16_82
*1469 FILLER_16_85
*1470 FILLER_16_98
*1471 FILLER_17_109
*1472 FILLER_17_113
*1473 FILLER_17_119
*1474 FILLER_17_127
*1475 FILLER_17_132
*1476 FILLER_17_145
*1477 FILLER_17_152
*1478 FILLER_17_159
*1479 FILLER_17_166
*1480 FILLER_17_169
*1481 FILLER_17_178
*1482 FILLER_17_184
*1483 FILLER_17_189
*1484 FILLER_17_196
*1485 FILLER_17_210
*1486 FILLER_17_217
*1487 FILLER_17_22
*1488 FILLER_17_223
*1489 FILLER_17_225
*1490 FILLER_17_233
*1491 FILLER_17_246
*1492 FILLER_17_254
*1493 FILLER_17_261
*1494 FILLER_17_278
*1495 FILLER_17_281
*1496 FILLER_17_29
*1497 FILLER_17_297
*1498 FILLER_17_3
*1499 FILLER_17_49
*1500 FILLER_17_55
*1501 FILLER_17_57
*1502 FILLER_17_69
*1503 FILLER_17_89
*1504 FILLER_18_109
*1505 FILLER_18_129
*1506 FILLER_18_138
*1507 FILLER_18_141
*1508 FILLER_18_145
*1509 FILLER_18_156
*1510 FILLER_18_171
*1511 FILLER_18_184
*1512 FILLER_18_194
*1513 FILLER_18_197
*1514 FILLER_18_204
*1515 FILLER_18_211
*1516 FILLER_18_219
*1517 FILLER_18_226
*1518 FILLER_18_233
*1519 FILLER_18_244
*1520 FILLER_18_253
*1521 FILLER_18_26
*1522 FILLER_18_277
*1523 FILLER_18_29
*1524 FILLER_18_297
*1525 FILLER_18_3
*1526 FILLER_18_37
*1527 FILLER_18_56
*1528 FILLER_18_76
*1529 FILLER_18_85
*1530 FILLER_18_9
*1531 FILLER_19_104
*1532 FILLER_19_113
*1533 FILLER_19_133
*1534 FILLER_19_141
*1535 FILLER_19_159
*1536 FILLER_19_166
*1537 FILLER_19_169
*1538 FILLER_19_174
*1539 FILLER_19_178
*1540 FILLER_19_184
*1541 FILLER_19_192
*1542 FILLER_19_198
*1543 FILLER_19_205
*1544 FILLER_19_216
*1545 FILLER_19_225
*1546 FILLER_19_232
*1547 FILLER_19_236
*1548 FILLER_19_250
*1549 FILLER_19_256
*1550 FILLER_19_26
*1551 FILLER_19_263
*1552 FILLER_19_271
*1553 FILLER_19_278
*1554 FILLER_19_281
*1555 FILLER_19_296
*1556 FILLER_19_3
*1557 FILLER_19_32
*1558 FILLER_19_36
*1559 FILLER_19_54
*1560 FILLER_19_57
*1561 FILLER_19_84
*1562 FILLER_1_106
*1563 FILLER_1_113
*1564 FILLER_1_13
*1565 FILLER_1_131
*1566 FILLER_1_148
*1567 FILLER_1_159
*1568 FILLER_1_166
*1569 FILLER_1_169
*1570 FILLER_1_175
*1571 FILLER_1_182
*1572 FILLER_1_191
*1573 FILLER_1_200
*1574 FILLER_1_207
*1575 FILLER_1_217
*1576 FILLER_1_223
*1577 FILLER_1_225
*1578 FILLER_1_234
*1579 FILLER_1_242
*1580 FILLER_1_257
*1581 FILLER_1_278
*1582 FILLER_1_281
*1583 FILLER_1_288
*1584 FILLER_1_297
*1585 FILLER_1_3
*1586 FILLER_1_39
*1587 FILLER_1_54
*1588 FILLER_1_57
*1589 FILLER_1_62
*1590 FILLER_1_86
*1591 FILLER_1_9
*1592 FILLER_1_93
*1593 FILLER_20_103
*1594 FILLER_20_111
*1595 FILLER_20_125
*1596 FILLER_20_138
*1597 FILLER_20_141
*1598 FILLER_20_151
*1599 FILLER_20_162
*1600 FILLER_20_170
*1601 FILLER_20_181
*1602 FILLER_20_191
*1603 FILLER_20_195
*1604 FILLER_20_197
*1605 FILLER_20_206
*1606 FILLER_20_215
*1607 FILLER_20_227
*1608 FILLER_20_238
*1609 FILLER_20_245
*1610 FILLER_20_251
*1611 FILLER_20_253
*1612 FILLER_20_257
*1613 FILLER_20_26
*1614 FILLER_20_271
*1615 FILLER_20_29
*1616 FILLER_20_297
*1617 FILLER_20_3