*SPEF "ieee 1481-1999"
*DESIGN "dsp_4bits_seq_alu"
*DATE "11:11:11 Fri 11 11, 1111"
*VENDOR "OpenRCX"
*PROGRAM "Parallel Extraction"
*VERSION "1.0"
*DESIGN_FLOW "NAME_SCOPE LOCAL" "PIN_CAP NONE"
*DIVIDER /
*DELIMITER :
*BUS_DELIMITER []
*T_UNIT 1 NS
*C_UNIT 1 PF
*R_UNIT 1 OHM
*L_UNIT 1 HENRY

*NAME_MAP
*1 io_in[0]
*2 io_in[1]
*3 io_in[2]
*4 io_in[3]
*5 io_in[4]
*6 io_in[5]
*7 io_in[6]
*8 io_in[7]
*9 io_out[0]
*10 io_out[1]
*11 io_out[2]
*12 io_out[3]
*13 io_out[4]
*14 io_out[5]
*15 io_out[6]
*16 io_out[7]
*19 _000_
*20 _001_
*21 _002_
*22 _003_
*23 _004_
*24 _005_
*25 _006_
*26 _007_
*27 _008_
*28 _009_
*29 _010_
*30 _011_
*31 _012_
*32 _013_
*33 _014_
*34 _015_
*35 _016_
*36 _017_
*37 _018_
*38 _019_
*39 _020_
*40 _021_
*41 _022_
*42 _023_
*43 _024_
*44 _025_
*45 _026_
*46 _027_
*47 _028_
*48 _029_
*49 _030_
*50 _031_
*51 _032_
*52 _033_
*53 _034_
*54 _035_
*55 _036_
*56 _037_
*57 _038_
*58 _039_
*59 _040_
*60 _041_
*61 _042_
*62 _043_
*63 _044_
*64 _045_
*65 _046_
*66 _047_
*67 _048_
*68 _049_
*69 _050_
*70 _051_
*71 _052_
*72 _053_
*73 _054_
*74 _055_
*75 _056_
*76 _057_
*77 _058_
*78 _059_
*79 _060_
*80 _061_
*81 _062_
*82 _063_
*83 _064_
*84 _065_
*85 _066_
*86 _067_
*87 _068_
*88 _069_
*89 _070_
*90 _071_
*91 _072_
*92 _073_
*93 _074_
*94 _075_
*95 _076_
*96 _077_
*97 _078_
*98 _079_
*99 _080_
*100 _081_
*101 _082_
*102 _083_
*103 _084_
*104 _085_
*105 _086_
*106 _087_
*107 _088_
*108 _089_
*109 _090_
*110 _091_
*111 _092_
*112 _093_
*113 _094_
*114 _095_
*115 _096_
*116 _097_
*117 _098_
*118 _099_
*119 _100_
*120 _101_
*121 _102_
*122 _103_
*123 _104_
*124 _105_
*125 _106_
*126 _107_
*127 _108_
*128 _109_
*129 _110_
*130 _111_
*131 _112_
*132 _113_
*133 _114_
*134 _115_
*135 _116_
*136 _117_
*137 _118_
*138 _119_
*139 _120_
*140 _121_
*141 _122_
*142 _123_
*143 _124_
*144 _125_
*145 _126_
*146 _127_
*147 _128_
*148 _129_
*149 _130_
*150 _131_
*151 _132_
*152 _133_
*153 _134_
*154 _135_
*155 _136_
*156 _137_
*157 _138_
*158 _139_
*159 _140_
*160 _141_
*161 _142_
*162 _143_
*163 _144_
*164 _145_
*165 _146_
*166 _147_
*167 _148_
*168 _149_
*169 _150_
*170 _151_
*171 _152_
*172 _153_
*173 _154_
*174 _155_
*175 _156_
*176 _157_
*177 _158_
*178 _159_
*179 _160_
*180 _161_
*181 _162_
*182 _163_
*183 _164_
*184 _165_
*185 _166_
*186 _167_
*187 alu_state\[0\]
*188 alu_state\[1\]
*189 alu_state\[2\]
*190 alu_state\[3\]
*191 clknet_0_io_in[0]
*192 clknet_1_0__leaf_io_in[0]
*193 clknet_1_1__leaf_io_in[0]
*194 net1
*195 net2
*196 net3
*197 net4
*198 net5
*199 net6
*200 op1\[0\]
*201 op1\[1\]
*202 op1\[2\]
*203 op1\[3\]
*204 op2\[0\]
*205 op2\[1\]
*206 op2\[2\]
*207 op2\[3\]
*208 operation\[0\]
*209 operation\[1\]
*210 operation\[2\]
*211 operation\[3\]
*212 FILLER_0_109
*213 FILLER_0_113
*214 FILLER_0_125
*215 FILLER_0_137
*216 FILLER_0_141
*217 FILLER_0_153
*218 FILLER_0_165
*219 FILLER_0_169
*220 FILLER_0_181
*221 FILLER_0_193
*222 FILLER_0_197
*223 FILLER_0_209
*224 FILLER_0_22
*225 FILLER_0_221
*226 FILLER_0_225
*227 FILLER_0_237
*228 FILLER_0_249
*229 FILLER_0_253
*230 FILLER_0_265
*231 FILLER_0_277
*232 FILLER_0_281
*233 FILLER_0_29
*234 FILLER_0_293
*235 FILLER_0_3
*236 FILLER_0_47
*237 FILLER_0_55
*238 FILLER_0_57
*239 FILLER_0_75
*240 FILLER_0_83
*241 FILLER_0_85
*242 FILLER_0_97
*243 FILLER_10_112
*244 FILLER_10_124
*245 FILLER_10_136
*246 FILLER_10_141
*247 FILLER_10_153
*248 FILLER_10_165
*249 FILLER_10_177
*250 FILLER_10_189
*251 FILLER_10_195
*252 FILLER_10_197
*253 FILLER_10_209
*254 FILLER_10_22
*255 FILLER_10_221
*256 FILLER_10_233
*257 FILLER_10_245
*258 FILLER_10_251
*259 FILLER_10_253
*260 FILLER_10_265
*261 FILLER_10_277
*262 FILLER_10_289
*263 FILLER_10_29
*264 FILLER_10_297
*265 FILLER_10_3
*266 FILLER_10_48
*267 FILLER_10_60
*268 FILLER_10_67
*269 FILLER_10_79
*270 FILLER_10_83
*271 FILLER_10_85
*272 FILLER_10_91
*273 FILLER_11_100
*274 FILLER_11_113
*275 FILLER_11_125
*276 FILLER_11_137
*277 FILLER_11_149
*278 FILLER_11_15
*279 FILLER_11_161
*280 FILLER_11_167
*281 FILLER_11_169
*282 FILLER_11_181
*283 FILLER_11_193
*284 FILLER_11_205
*285 FILLER_11_217
*286 FILLER_11_223
*287 FILLER_11_225
*288 FILLER_11_237
*289 FILLER_11_249
*290 FILLER_11_261
*291 FILLER_11_273
*292 FILLER_11_279
*293 FILLER_11_281
*294 FILLER_11_293
*295 FILLER_11_3
*296 FILLER_11_36
*297 FILLER_11_48
*298 FILLER_11_57
*299 FILLER_11_68
*300 FILLER_11_72
*301 FILLER_11_76
*302 FILLER_11_88
*303 FILLER_12_109
*304 FILLER_12_115
*305 FILLER_12_123
*306 FILLER_12_135
*307 FILLER_12_139
*308 FILLER_12_141
*309 FILLER_12_153
*310 FILLER_12_165
*311 FILLER_12_177
*312 FILLER_12_189
*313 FILLER_12_195
*314 FILLER_12_197
*315 FILLER_12_209
*316 FILLER_12_21
*317 FILLER_12_221
*318 FILLER_12_233
*319 FILLER_12_245
*320 FILLER_12_251
*321 FILLER_12_253
*322 FILLER_12_265
*323 FILLER_12_27
*324 FILLER_12_277
*325 FILLER_12_289
*326 FILLER_12_29
*327 FILLER_12_297
*328 FILLER_12_3
*329 FILLER_12_41
*330 FILLER_12_56
*331 FILLER_12_68
*332 FILLER_12_77
*333 FILLER_12_83
*334 FILLER_12_85
*335 FILLER_12_97
*336 FILLER_13_106
*337 FILLER_13_113
*338 FILLER_13_124
*339 FILLER_13_136
*340 FILLER_13_148
*341 FILLER_13_160
*342 FILLER_13_169
*343 FILLER_13_181
*344 FILLER_13_193
*345 FILLER_13_205
*346 FILLER_13_21
*347 FILLER_13_217
*348 FILLER_13_223
*349 FILLER_13_225
*350 FILLER_13_237
*351 FILLER_13_249
*352 FILLER_13_261
*353 FILLER_13_273
*354 FILLER_13_279
*355 FILLER_13_281
*356 FILLER_13_293
*357 FILLER_13_3
*358 FILLER_13_33
*359 FILLER_13_44
*360 FILLER_13_54
*361 FILLER_13_57
*362 FILLER_13_63
*363 FILLER_13_75
*364 FILLER_13_82
*365 FILLER_13_9
*366 FILLER_13_94
*367 FILLER_14_108
*368 FILLER_14_120
*369 FILLER_14_132
*370 FILLER_14_141
*371 FILLER_14_153
*372 FILLER_14_16
*373 FILLER_14_165
*374 FILLER_14_177
*375 FILLER_14_189
*376 FILLER_14_195
*377 FILLER_14_197
*378 FILLER_14_20
*379 FILLER_14_209
*380 FILLER_14_221
*381 FILLER_14_233
*382 FILLER_14_245
*383 FILLER_14_25
*384 FILLER_14_251
*385 FILLER_14_253
*386 FILLER_14_265
*387 FILLER_14_277
*388 FILLER_14_289
*389 FILLER_14_29
*390 FILLER_14_297
*391 FILLER_14_3
*392 FILLER_14_34
*393 FILLER_14_47
*394 FILLER_14_57
*395 FILLER_14_61
*396 FILLER_14_71
*397 FILLER_14_83
*398 FILLER_14_85
*399 FILLER_14_9
*400 FILLER_14_96
*401 FILLER_15_101
*402 FILLER_15_109
*403 FILLER_15_113
*404 FILLER_15_125
*405 FILLER_15_137
*406 FILLER_15_149
*407 FILLER_15_161
*408 FILLER_15_167
*409 FILLER_15_169
*410 FILLER_15_181
*411 FILLER_15_193
*412 FILLER_15_20
*413 FILLER_15_205
*414 FILLER_15_217
*415 FILLER_15_223
*416 FILLER_15_225
*417 FILLER_15_237
*418 FILLER_15_249
*419 FILLER_15_261
*420 FILLER_15_273
*421 FILLER_15_279
*422 FILLER_15_281
*423 FILLER_15_293
*424 FILLER_15_3
*425 FILLER_15_32
*426 FILLER_15_47
*427 FILLER_15_54
*428 FILLER_15_57
*429 FILLER_15_69
*430 FILLER_15_77
*431 FILLER_15_85
*432 FILLER_15_92
*433 FILLER_16_110
*434 FILLER_16_118
*435 FILLER_16_130
*436 FILLER_16_138
*437 FILLER_16_141
*438 FILLER_16_15
*439 FILLER_16_153
*440 FILLER_16_165
*441 FILLER_16_177
*442 FILLER_16_189
*443 FILLER_16_195
*444 FILLER_16_197
*445 FILLER_16_209
*446 FILLER_16_221
*447 FILLER_16_233
*448 FILLER_16_245
*449 FILLER_16_251
*450 FILLER_16_253
*451 FILLER_16_26
*452 FILLER_16_265
*453 FILLER_16_277
*454 FILLER_16_289
*455 FILLER_16_29
*456 FILLER_16_297
*457 FILLER_16_3
*458 FILLER_16_33
*459 FILLER_16_37
*460 FILLER_16_46
*461 FILLER_16_54
*462 FILLER_16_67
*463 FILLER_16_75
*464 FILLER_16_79
*465 FILLER_16_83
*466 FILLER_16_85
*467 FILLER_16_91
*468 FILLER_16_98
*469 FILLER_17_107
*470 FILLER_17_111
*471 FILLER_17_113
*472 FILLER_17_12
*473 FILLER_17_125
*474 FILLER_17_137
*475 FILLER_17_149
*476 FILLER_17_16
*477 FILLER_17_161
*478 FILLER_17_167
*479 FILLER_17_169
*480 FILLER_17_181
*481 FILLER_17_193
*482 FILLER_17_205
*483 FILLER_17_217
*484 FILLER_17_223
*485 FILLER_17_225
*486 FILLER_17_237
*487 FILLER_17_249
*488 FILLER_17_261
*489 FILLER_17_273
*490 FILLER_17_279
*491 FILLER_17_28
*492 FILLER_17_281
*493 FILLER_17_293
*494 FILLER_17_3
*495 FILLER_17_37
*496 FILLER_17_45
*497 FILLER_17_52
*498 FILLER_17_57
*499 FILLER_17_68
*500 FILLER_17_8
*501 FILLER_17_83
*502 FILLER_17_95
*503 FILLER_18_109
*504 FILLER_18_121
*505 FILLER_18_133
*506 FILLER_18_139
*507 FILLER_18_141
*508 FILLER_18_153
*509 FILLER_18_165
*510 FILLER_18_177
*511 FILLER_18_189
*512 FILLER_18_195
*513 FILLER_18_197
*514 FILLER_18_20
*515 FILLER_18_209
*516 FILLER_18_221
*517 FILLER_18_233
*518 FILLER_18_245
*519 FILLER_18_251
*520 FILLER_18_253
*521 FILLER_18_26
*522 FILLER_18_265
*523 FILLER_18_277
*524 FILLER_18_289
*525 FILLER_18_29
*526 FILLER_18_297
*527 FILLER_18_3
*528 FILLER_18_41
*529 FILLER_18_50
*530 FILLER_18_58
*531 FILLER_18_63
*532 FILLER_18_75
*533 FILLER_18_8
*534 FILLER_18_83
*535 FILLER_18_85
*536 FILLER_18_97
*537 FILLER_19_105
*538 FILLER_19_11
*539 FILLER_19_111
*540 FILLER_19_113
*541 FILLER_19_125
*542 FILLER_19_137
*543 FILLER_19_149
*544 FILLER_19_161
*545 FILLER_19_167
*546 FILLER_19_169
*547 FILLER_19_181
*548 FILLER_19_19
*549 FILLER_19_193
*550 FILLER_19_205
*551 FILLER_19_217
*552 FILLER_19_223
*553 FILLER_19_225
*554 FILLER_19_237
*555 FILLER_19_249
*556 FILLER_19_261
*557 FILLER_19_273
*558 FILLER_19_279
*559 FILLER_19_281
*560 FILLER_19_29
*561 FILLER_19_293
*562 FILLER_19_3
*563 FILLER_19_41
*564 FILLER_19_53
*565 FILLER_19_57
*566 FILLER_19_69
*567 FILLER_19_7
*568 FILLER_19_81
*569 FILLER_19_93
*570 FILLER_1_108
*571 FILLER_1_113
*572 FILLER_1_125
*573 FILLER_1_137
*574 FILLER_1_149
*575 FILLER_1_15
*576 FILLER_1_161
*577 FILLER_1_167
*578 FILLER_1_169
*579 FILLER_1_181
*580 FILLER_1_193
*581 FILLER_1_205
*582 FILLER_1_217
*583 FILLER_1_223
*584 FILLER_1_225
*585 FILLER_1_237
*586 FILLER_1_249
*587 FILLER_1_261
*588 FILLER_1_273
*589 FILLER_1_279
*590 FILLER_1_281
*591 FILLER_1_293
*592 FILLER_1_3
*593 FILLER_1_36
*594 FILLER_1_48
*595 FILLER_1_54
*596 FILLER_1_57
*597 FILLER_1_75
*598 FILLER_1_84
*599 FILLER_1_9
*600 FILLER_1_96
*601 FILLER_20_109
*602 FILLER_20_121
*603 FILLER_20_133
*604 FILLER_20_139
*605 FILLER_20_141
*606 FILLER_20_153
*607 FILLER_20_165
*608 FILLER_20_17
*609 FILLER_20_177
*610 FILLER_20_189
*611 FILLER_20_195
*612 FILLER_20_197
*613 FILLER_20_209
*614 FILLER_20_221
*615 FILLER_20_233
*616 FILLER_20_24
*617 FILLER_20_245
*618 FILLER_20_251
*619 FILLER_20_253
*620 FILLER_20_265
*621 FILLER_20_277
*622 FILLER_20_289
*623 FILLER_20_29
*624 FILLER_20_297
*625 FILLER_20_3
*626 FILLER_20_40
*627 FILLER_20_47
*628 FILLER_20_58
*629 FILLER_20_70
*630 FILLER_20_82
*631 FILLER_20_85
*632 FILLER_20_97
*633 FILLER_21_100
*634 FILLER_21_113
*635 FILLER_21_125
*636 FILLER_21_137
*637 FILLER_21_149
*638 FILLER_21_16
*639 FILLER_21_161
*640 FILLER_21_167
*641 FILLER_21_169
*642 FILLER_21_181
*643 FILLER_21_193
*644 FILLER_21_205
*645 FILLER_21_217
*646 FILLER_21_223
*647 FILLER_21_225
*648 FILLER_21_237
*649 FILLER_21_249
*650 FILLER_21_261
*651 FILLER_21_27
*652 FILLER_21_273
*653 FILLER_21_279
*654 FILLER_21_281
*655 FILLER_21_293
*656 FILLER_21_3
*657 FILLER_21_35
*658 FILLER_21_45
*659 FILLER_21_52
*660 FILLER_21_57
*661 FILLER_21_69
*662 FILLER_21_8
*663 FILLER_21_81
*664 FILLER_21_93
*665 FILLER_22_100
*666 FILLER_22_112
*667 FILLER_22_120
*668 FILLER_22_132
*669 FILLER_22_138
*670 FILLER_22_141
*671 FILLER_22_15
*672 FILLER_22_153
*673 FILLER_22_165
*674 FILLER_22_177
*675 FILLER_22_189
*676 FILLER_22_195
*677 FILLER_22_197
*678 FILLER_22_209
*679 FILLER_22_221
*680 FILLER_22_233
*681 FILLER_22_245
*682 FILLER_22_251
*683 FILLER_22_253
*684 FILLER_22_265
*685 FILLER_22_27
*686 FILLER_22_277
*687 FILLER_22_289
*688 FILLER_22_29
*689 FILLER_22_297
*690 FILLER_22_3
*691 FILLER_22_40
*692 FILLER_22_50
*693 FILLER_22_56
*694 FILLER_22_62
*695 FILLER_22_74
*696 FILLER_22_81
*697 FILLER_22_85
*698 FILLER_22_93
*699 FILLER_23_101
*700 FILLER_23_109
*701 FILLER_23_113
*702 FILLER_23_121
*703 FILLER_23_133
*704 FILLER_23_145
*705 FILLER_23_15
*706 FILLER_23_157
*707 FILLER_23_165
*708 FILLER_23_169
*709 FILLER_23_181
*710 FILLER_23_193
*711 FILLER_23_205
*712 FILLER_23_217
*713 FILLER_23_223
*714 FILLER_23_225
*715 FILLER_23_237
*716 FILLER_23_249
*717 FILLER_23_261
*718 FILLER_23_273
*719 FILLER_23_279
*720 FILLER_23_281
*721 FILLER_23_293
*722 FILLER_23_3
*723 FILLER_23_31
*724 FILLER_23_45
*725 FILLER_23_53
*726 FILLER_23_57
*727 FILLER_23_65
*728 FILLER_23_7
*729 FILLER_23_77
*730 FILLER_23_89
*731 FILLER_24_107
*732 FILLER_24_124
*733 FILLER_24_136
*734 FILLER_24_141
*735 FILLER_24_15
*736 FILLER_24_153
*737 FILLER_24_165
*738 FILLER_24_177
*739 FILLER_24_189
*740 FILLER_24_195
*741 FILLER_24_197
*742 FILLER_24_209
*743 FILLER_24_221
*744 FILLER_24_233
*745 FILLER_24_245
*746 FILLER_24_251
*747 FILLER_24_253
*748 FILLER_24_265
*749 FILLER_24_27
*750 FILLER_24_277
*751 FILLER_24_289
*752 FILLER_24_29
*753 FILLER_24_297
*754 FILLER_24_3
*755 FILLER_24_39
*756 FILLER_24_49
*757 FILLER_24_58
*758 FILLER_24_70
*759 FILLER_24_82
*760 FILLER_24_85
*761 FILLER_24_95
*762 FILLER_25_100
*763 FILLER_25_107
*764 FILLER_25_111
*765 FILLER_25_113
*766 FILLER_25_125
*767 FILLER_25_137
*768 FILLER_25_149
*769 FILLER_25_15
*770 FILLER_25_161
*771 FILLER_25_167
*772 FILLER_25_169
*773 FILLER_25_181
*774 FILLER_25_193
*775 FILLER_25_205
*776 FILLER_25_217
*777 FILLER_25_223
*778 FILLER_25_225
*779 FILLER_25_237
*780 FILLER_25_249
*781 FILLER_25_261
*782 FILLER_25_27
*783 FILLER_25_273
*784 FILLER_25_279
*785 FILLER_25_281
*786 FILLER_25_293
*787 FILLER_25_3
*788 FILLER_25_35
*789 FILLER_25_43
*790 FILLER_25_52
*791 FILLER_25_57
*792 FILLER_25_64
*793 FILLER_25_76
*794 FILLER_25_88
*795 FILLER_26_106
*796 FILLER_26_118
*797 FILLER_26_129
*798 FILLER_26_137
*799 FILLER_26_141
*800 FILLER_26_153
*801 FILLER_26_165
*802 FILLER_26_177
*803 FILLER_26_189
*804 FILLER_26_195
*805 FILLER_26_197
*806 FILLER_26_20
*807 FILLER_26_209
*808 FILLER_26_221
*809 FILLER_26_233
*810 FILLER_26_245
*811 FILLER_26_251
*812 FILLER_26_253
*813 FILLER_26_265
*814 FILLER_26_277
*815 FILLER_26_289
*816 FILLER_26_29
*817 FILLER_26_297
*818 FILLER_26_3
*819 FILLER_26_40
*820 FILLER_26_52
*821 FILLER_26_56
*822 FILLER_26_63
*823 FILLER_26_75
*824 FILLER_26_8
*825 FILLER_26_83
*826 FILLER_26_85
*827 FILLER_26_94
*828 FILLER_27_104
*829 FILLER_27_11
*830 FILLER_27_113
*831 FILLER_27_121
*832 FILLER_27_128
*833 FILLER_27_140
*834 FILLER_27_152
*835 FILLER_27_164
*836 FILLER_27_169
*837 FILLER_27_17
*838 FILLER_27_181
*839 FILLER_27_193
*840 FILLER_27_205
*841 FILLER_27_217
*842 FILLER_27_223
*843 FILLER_27_225
*844 FILLER_27_237
*845 FILLER_27_249
*846 FILLER_27_261
*847 FILLER_27_273
*848 FILLER_27_279
*849 FILLER_27_281
*850 FILLER_27_293
*851 FILLER_27_3
*852 FILLER_27_35
*853 FILLER_27_51
*854 FILLER_27_55
*855 FILLER_27_57
*856 FILLER_27_62
*857 FILLER_27_70
*858 FILLER_27_78
*859 FILLER_27_88
*860 FILLER_27_96
*861 FILLER_28_105
*862 FILLER_28_117
*863 FILLER_28_129
*864 FILLER_28_137
*865 FILLER_28_141
*866 FILLER_28_15
*867 FILLER_28_153
*868 FILLER_28_165
*869 FILLER_28_177
*870 FILLER_28_189
*871 FILLER_28_195
*872 FILLER_28_197
*873 FILLER_28_209
*874 FILLER_28_221
*875 FILLER_28_233
*876 FILLER_28_245
*877 FILLER_28_251
*878 FILLER_28_253
*879 FILLER_28_26
*880 FILLER_28_265
*881 FILLER_28_277
*882 FILLER_28_289
*883 FILLER_28_29
*884 FILLER_28_297
*885 FILLER_28_3
*886 FILLER_28_38
*887 FILLER_28_46
*888 FILLER_28_55
*889 FILLER_28_66
*890 FILLER_28_78
*891 FILLER_28_85
*892 FILLER_28_93
*893 FILLER_29_104
*894 FILLER_29_110
*895 FILLER_29_113
*896 FILLER_29_119
*897 FILLER_29_127
*898 FILLER_29_139
*899 FILLER_29_15
*900 FILLER_29_151
*901 FILLER_29_163
*902 FILLER_29_167
*903 FILLER_29_169
*904 FILLER_29_181
*905 FILLER_29_193
*906 FILLER_29_205
*907 FILLER_29_217
*908 FILLER_29_223
*909 FILLER_29_225
*910 FILLER_29_237
*911 FILLER_29_249
*912 FILLER_29_261
*913 FILLER_29_27
*914 FILLER_29_273
*915 FILLER_29_279
*916 FILLER_29_281
*917 FILLER_29_293
*918 FILLER_29_3
*919 FILLER_29_35
*920 FILLER_29_47
*921 FILLER_29_55
*922 FILLER_29_57
*923 FILLER_29_72
*924 FILLER_29_85
*925 FILLER_29_96
*926 FILLER_2_109
*927 FILLER_2_121
*928 FILLER_2_133
*929 FILLER_2_139
*930 FILLER_2_141
*931 FILLER_2_153
*932 FILLER_2_165
*933 FILLER_2_177
*934 FILLER_2_189
*935 FILLER_2_195
*936 FILLER_2_197
*937 FILLER_2_209
*938 FILLER_2_22
*939 FILLER_2_221
*940 FILLER_2_233
*941 FILLER_2_245
*942 FILLER_2_251
*943 FILLER_2_253
*944 FILLER_2_265
*945 FILLER_2_277
*946 FILLER_2_289
*947 FILLER_2_29
*948 FILLER_2_297
*949 FILLER_2_3
*950 FILLER_2_47
*951 FILLER_2_67
*952 FILLER_2_77
*953 FILLER_2_83
*954 FILLER_2_85
*955 FILLER_2_97
*956 FILLER_30_108
*957 FILLER_30_120
*958 FILLER_30_132
*959 FILLER_30_141
*960 FILLER_30_15
*961 FILLER_30_153
*962 FILLER_30_165
*963 FILLER_30_177
*964 FILLER_30_189
*965 FILLER_30_195
*966 FILLER_30_197
*967 FILLER_30_209
*968 FILLER_30_221
*969 FILLER_30_233
*970 FILLER_30_245
*971 FILLER_30_251
*972 FILLER_30_253
*973 FILLER_30_265
*974 FILLER_30_27
*975 FILLER_30_277
*976 FILLER_30_289
*977 FILLER_30_29
*978 FILLER_30_297
*979 FILLER_30_3
*980 FILLER_30_39
*981 FILLER_30_51
*982 FILLER_30_64
*983 FILLER_30_82
*984 FILLER_30_85
*985 FILLER_30_90
*986 FILLER_30_98
*987 FILLER_31_107
*988 FILLER_31_111
*989 FILLER_31_113
*990 FILLER_31_125
*991 FILLER_31_137
*992 FILLER_31_149
*993 FILLER_31_15
*994 FILLER_31_161
*995 FILLER_31_167
*996 FILLER_31_169
*997 FILLER_31_181
*998 FILLER_31_193
*999 FILLER_31_205
*1000 FILLER_31_217
*1001 FILLER_31_223
*1002 FILLER_31_225
*1003 FILLER_31_237
*1004 FILLER_31_249
*1005 FILLER_31_261
*1006 FILLER_31_27
*1007 FILLER_31_273
*1008 FILLER_31_279
*1009 FILLER_31_281
*1010 FILLER_31_293
*1011 FILLER_31_3
*1012 FILLER_31_39
*1013 FILLER_31_51
*1014 FILLER_31_55
*1015 FILLER_31_57
*1016 FILLER_31_65
*1017 FILLER_31_71
*1018 FILLER_31_83
*1019 FILLER_31_95
*1020 FILLER_32_103
*1021 FILLER_32_115
*1022 FILLER_32_127
*1023 FILLER_32_139
*1024 FILLER_32_141
*1025 FILLER_32_15
*1026 FILLER_32_153
*1027 FILLER_32_165
*1028 FILLER_32_177
*1029 FILLER_32_189
*1030 FILLER_32_195
*1031 FILLER_32_197
*1032 FILLER_32_209
*1033 FILLER_32_221
*1034 FILLER_32_233
*1035 FILLER_32_245
*1036 FILLER_32_251
*1037 FILLER_32_253
*1038 FILLER_32_265
*1039 FILLER_32_27
*1040 FILLER_32_277
*1041 FILLER_32_289
*1042 FILLER_32_29
*1043 FILLER_32_297
*1044 FILLER_32_3
*1045 FILLER_32_37
*1046 FILLER_32_47
*1047 FILLER_32_57
*1048 FILLER_32_64
*1049 FILLER_32_68
*1050 FILLER_32_76
*1051 FILLER_32_85
*1052 FILLER_33_107
*1053 FILLER_33_111
*1054 FILLER_33_113
*1055 FILLER_33_122
*1056 FILLER_33_134
*1057 FILLER_33_146
*1058 FILLER_33_15
*1059 FILLER_33_158
*1060 FILLER_33_166
*1061 FILLER_33_169
*1062 FILLER_33_181
*1063 FILLER_33_193
*1064 FILLER_33_205
*1065 FILLER_33_217
*1066 FILLER_33_223
*1067 FILLER_33_225
*1068 FILLER_33_237
*1069 FILLER_33_249
*1070 FILLER_33_261
*1071 FILLER_33_27
*1072 FILLER_33_273
*1073 FILLER_33_279
*1074 FILLER_33_281
*1075 FILLER_33_293
*1076 FILLER_33_3
*1077 FILLER_33_38
*1078 FILLER_33_42
*1079 FILLER_33_46
*1080 FILLER_33_54
*1081 FILLER_33_57
*1082 FILLER_33_67
*1083 FILLER_33_86
*1084 FILLER_33_95
*1085 FILLER_34_108
*1086 FILLER_34_120
*1087 FILLER_34_132
*1088 FILLER_34_141
*1089 FILLER_34_15
*1090 FILLER_34_153
*1091 FILLER_34_165
*1092 FILLER_34_177
*1093 FILLER_34_189
*1094 FILLER_34_195
*1095 FILLER_34_197
*1096 FILLER_34_209
*1097 FILLER_34_221
*1098 FILLER_34_233
*1099 FILLER_34_245
*1100 FILLER_34_251
*1101 FILLER_34_253
*1102 FILLER_34_26
*1103 FILLER_34_265
*1104 FILLER_34_277
*1105 FILLER_34_289
*1106 FILLER_34_29
*1107 FILLER_34_297
*1108 FILLER_34_3
*1109 FILLER_34_34
*1110 FILLER_34_42
*1111 FILLER_34_51
*1112 FILLER_34_63
*1113 FILLER_34_82
*1114 FILLER_34_85
*1115 FILLER_34_97
*1116 FILLER_35_102
*1117 FILLER_35_110
*1118 FILLER_35_113
*1119 FILLER_35_125
*1120 FILLER_35_137
*1121 FILLER_35_149
*1122 FILLER_35_15
*1123 FILLER_35_161
*1124 FILLER_35_167
*1125 FILLER_35_169
*1126 FILLER_35_181
*1127 FILLER_35_193
*1128 FILLER_35_205
*1129 FILLER_35_217
*1130 FILLER_35_223
*1131 FILLER_35_225
*1132 FILLER_35_237
*1133 FILLER_35_249
*1134 FILLER_35_261
*1135 FILLER_35_27
*1136 FILLER_35_273
*1137 FILLER_35_279
*1138 FILLER_35_281
*1139 FILLER_35_293
*1140 FILLER_35_3
*1141 FILLER_35_31
*1142 FILLER_35_41
*1143 FILLER_35_54
*1144 FILLER_35_57
*1145 FILLER_35_65
*1146 FILLER_35_76
*1147 FILLER_35_84
*1148 FILLER_35_90
*1149 FILLER_36_104
*1150 FILLER_36_110
*1151 FILLER_36_118
*1152 FILLER_36_130
*1153 FILLER_36_138
*1154 FILLER_36_141
*1155 FILLER_36_15
*1156 FILLER_36_153
*1157 FILLER_36_165
*1158 FILLER_36_177
*1159 FILLER_36_189
*1160 FILLER_36_195
*1161 FILLER_36_197
*1162 FILLER_36_209
*1163 FILLER_36_221
*1164 FILLER_36_233
*1165 FILLER_36_245
*1166 FILLER_36_251
*1167 FILLER_36_253
*1168 FILLER_36_265
*1169 FILLER_36_27
*1170 FILLER_36_277
*1171 FILLER_36_289
*1172 FILLER_36_29
*1173 FILLER_36_297
*1174 FILLER_36_3
*1175 FILLER_36_37
*1176 FILLER_36_44
*1177 FILLER_36_56
*1178 FILLER_36_66
*1179 FILLER_36_77
*1180 FILLER_36_83
*1181 FILLER_36_85
*1182 FILLER_36_94
*1183 FILLER_37_106
*1184 FILLER_37_113
*1185 FILLER_37_125
*1186 FILLER_37_137
*1187 FILLER_37_149
*1188 FILLER_37_15
*1189 FILLER_37_161
*1190 FILLER_37_167
*1191 FILLER_37_169
*1192 FILLER_37_181
*1193 FILLER_37_193
*1194 FILLER_37_205
*1195 FILLER_37_217
*1196 FILLER_37_223
*1197 FILLER_37_225
*1198 FILLER_37_237
*1199 FILLER_37_249
*1200 FILLER_37_261
*1201 FILLER_37_27
*1202 FILLER_37_273
*1203 FILLER_37_279
*1204 FILLER_37_281
*1205 FILLER_37_293
*1206 FILLER_37_3
*1207 FILLER_37_39
*1208 FILLER_37_53
*1209 FILLER_37_57
*1210 FILLER_37_67
*1211 FILLER_37_75
*1212 FILLER_37_82
*1213 FILLER_37_94
*1214 FILLER_38_109
*1215 FILLER_38_121
*1216 FILLER_38_133
*1217 FILLER_38_139
*1218 FILLER_38_141
*1219 FILLER_38_15
*1220 FILLER_38_153
*1221 FILLER_38_165
*1222 FILLER_38_177
*1223 FILLER_38_189
*1224 FILLER_38_195
*1225 FILLER_38_197
*1226 FILLER_38_209
*1227 FILLER_38_221
*1228 FILLER_38_233
*1229 FILLER_38_245
*1230 FILLER_38_251
*1231 FILLER_38_253
*1232 FILLER_38_265
*1233 FILLER_38_27
*1234 FILLER_38_277
*1235 FILLER_38_289
*1236 FILLER_38_29
*1237 FILLER_38_297
*1238 FILLER_38_3
*1239 FILLER_38_41
*1240 FILLER_38_53
*1241 FILLER_38_63
*1242 FILLER_38_74
*1243 FILLER_38_82
*1244 FILLER_38_85
*1245 FILLER_38_97
*1246 FILLER_39_105
*1247 FILLER_39_111
*1248 FILLER_39_113
*1249 FILLER_39_125
*1250 FILLER_39_137
*1251 FILLER_39_149
*1252 FILLER_39_15
*1253 FILLER_39_161
*1254 FILLER_39_167
*1255 FILLER_39_169
*1256 FILLER_39_181
*1257 FILLER_39_193
*1258 FILLER_39_205
*1259 FILLER_39_217
*1260 FILLER_39_223
*1261 FILLER_39_225
*1262 FILLER_39_237
*1263 FILLER_39_249
*1264 FILLER_39_261
*1265 FILLER_39_27
*1266 FILLER_39_273
*1267 FILLER_39_279
*1268 FILLER_39_281
*1269 FILLER_39_293
*1270 FILLER_39_3
*1271 FILLER_39_39
*1272 FILLER_39_54
*1273 FILLER_39_57
*1274 FILLER_39_69
*1275 FILLER_39_81
*1276 FILLER_39_93
*1277 FILLER_3_111
*1278 FILLER_3_113
*1279 FILLER_3_125
*1280 FILLER_3_137
*1281 FILLER_3_149
*1282 FILLER_3_161
*1283 FILLER_3_167
*1284 FILLER_3_169
*1285 FILLER_3_181
*1286 FILLER_3_193
*1287 FILLER_3_205
*1288 FILLER_3_217
*1289 FILLER_3_223
*1290 FILLER_3_225
*1291 FILLER_3_237
*1292 FILLER_3_249
*1293 FILLER_3_261
*1294 FILLER_3_27
*1295 FILLER_3_273
*1296 FILLER_3_279
*1297 FILLER_3_281
*1298 FILLER_3_293
*1299 FILLER_3_3
*1300 FILLER_3_48
*1301 FILLER_3_57
*1302 FILLER_3_75
*1303 FILLER_3_87
*1304 FILLER_3_9
*1305 FILLER_3_99
*1306 FILLER_40_109
*1307 FILLER_40_121
*1308 FILLER_40_133
*1309 FILLER_40_139
*1310 FILLER_40_141
*1311 FILLER_40_15
*1312 FILLER_40_153
*1313 FILLER_40_165
*1314 FILLER_40_177
*1315 FILLER_40_189
*1316 FILLER_40_195
*1317 FILLER_40_197
*1318 FILLER_40_209
*1319 FILLER_40_221
*1320 FILLER_40_233
*1321 FILLER_40_245
*1322 FILLER_40_251
*1323 FILLER_40_253
*1324 FILLER_40_265
*1325 FILLER_40_27
*1326 FILLER_40_277
*1327 FILLER_40_289
*1328 FILLER_40_29
*1329 FILLER_40_297
*1330 FILLER_40_3
*1331 FILLER_40_41
*1332 FILLER_40_53
*1333 FILLER_40_65
*1334 FILLER_40_77
*1335 FILLER_40_83
*1336 FILLER_40_85
*1337 FILLER_40_97
*1338 FILLER_41_105
*1339 FILLER_41_111
*1340 FILLER_41_113
*1341 FILLER_41_125
*1342 FILLER_41_137
*1343 FILLER_41_149
*1344 FILLER_41_15
*1345 FILLER_41_161
*1346 FILLER_41_167
*1347 FILLER_41_169
*1348 FILLER_41_181
*1349 FILLER_41_193
*1350 FILLER_41_205
*1351 FILLER_41_217
*1352 FILLER_41_223
*1353 FILLER_41_225
*1354 FILLER_41_237
*1355 FILLER_41_249
*1356 FILLER_41_261
*1357 FILLER_41_27
*1358 FILLER_41_273
*1359 FILLER_41_279
*1360 FILLER_41_281
*1361 FILLER_41_293
*1362 FILLER_41_3
*1363 FILLER_41_39
*1364 FILLER_41_51
*1365 FILLER_41_55
*1366 FILLER_41_57
*1367 FILLER_41_69
*1368 FILLER_41_81
*1369 FILLER_41_93
*1370 FILLER_42_109
*1371 FILLER_42_121
*1372 FILLER_42_133
*1373 FILLER_42_139
*1374 FILLER_42_141
*1375 FILLER_42_15
*1376 FILLER_42_153
*1377 FILLER_42_165
*1378 FILLER_42_177
*1379 FILLER_42_189
*1380 FILLER_42_195
*1381 FILLER_42_197
*1382 FILLER_42_209
*1383 FILLER_42_221
*1384 FILLER_42_233
*1385 FILLER_42_245
*1386 FILLER_42_251
*1387 FILLER_42_253
*1388 FILLER_42_265
*1389 FILLER_42_27
*1390 FILLER_42_277
*1391 FILLER_42_289
*1392 FILLER_42_29
*1393 FILLER_42_297
*1394 FILLER_42_3
*1395 FILLER_42_41
*1396 FILLER_42_53
*1397 FILLER_42_65
*1398 FILLER_42_77
*1399 FILLER_42_83
*1400 FILLER_42_85
*1401 FILLER_42_97
*1402 FILLER_43_105
*1403 FILLER_43_111
*1404 FILLER_43_113
*1405 FILLER_43_125
*1406 FILLER_43_137
*1407 FILLER_43_149
*1408 FILLER_43_15
*1409 FILLER_43_161
*1410 FILLER_43_167
*1411 FILLER_43_169
*1412 FILLER_43_181
*1413 FILLER_43_193
*1414 FILLER_43_205
*1415 FILLER_43_217
*1416 FILLER_43_223
*1417 FILLER_43_225
*1418 FILLER_43_237
*1419 FILLER_43_249
*1420 FILLER_43_261
*1421 FILLER_43_27
*1422 FILLER_43_273
*1423 FILLER_43_279
*1424 FILLER_43_281
*1425 FILLER_43_293
*1426 FILLER_43_3
*1427 FILLER_43_39
*1428 FILLER_43_51
*1429 FILLER_43_55
*1430 FILLER_43_57
*1431 FILLER_43_69
*1432 FILLER_43_81
*1433 FILLER_43_93
*1434 FILLER_44_109
*1435 FILLER_44_121
*1436 FILLER_44_133
*1437 FILLER_44_139
*1438 FILLER_44_141
*1439 FILLER_44_15
*1440 FILLER_44_153
*1441 FILLER_44_165
*1442 FILLER_44_177
*1443 FILLER_44_189
*1444 FILLER_44_195
*1445 FILLER_44_197
*1446 FILLER_44_209
*1447 FILLER_44_221
*1448 FILLER_44_233
*1449 FILLER_44_245
*1450 FILLER_44_251
*1451 FILLER_44_253
*1452 FILLER_44_265
*1453 FILLER_44_27
*1454 FILLER_44_277
*1455 FILLER_44_289
*1456 FILLER_44_29
*1457 FILLER_44_297
*1458 FILLER_44_3
*1459 FILLER_44_41
*1460 FILLER_44_53
*1461 FILLER_44_65
*1462 FILLER_44_77
*1463 FILLER_44_83
*1464 FILLER_44_85
*1465 FILLER_44_97
*1466 FILLER_45_105
*1467 FILLER_45_111
*1468 FILLER_45_113
*1469 FILLER_45_125
*1470 FILLER_45_137
*1471 FILLER_45_149
*1472 FILLER_45_15
*1473 FILLER_45_161
*1474 FILLER_45_167
*1475 FILLER_45_169
*1476 FILLER_45_181
*1477 FILLER_45_193
*1478 FILLER_45_205
*1479 FILLER_45_217
*1480 FILLER_45_223
*1481 FILLER_45_225
*1482 FILLER_45_237
*1483 FILLER_45_249
*1484 FILLER_45_261
*1485 FILLER_45_27
*1486 FILLER_45_273
*1487 FILLER_45_279
*1488 FILLER_45_281
*1489 FILLER_45_293
*1490 FILLER_45_3
*1491 FILLER_45_39
*1492 FILLER_45_51
*1493 FILLER_45_55
*1494 FILLER_45_57
*1495 FILLER_45_69
*1496 FILLER_45_81
*1497 FILLER_45_93
*1498 FILLER_46_109
*1499 FILLER_46_121
*1500 FILLER_46_133
*1501 FILLER_46_139
*1502 FILLER_46_141
*1503 FILLER_46_15
*1504 FILLER_46_153
*1505 FILLER_46_165
*1506 FILLER_46_177
*1507 FILLER_46_189
*1508 FILLER_46_195
*1509 FILLER_46_197
*1510 FILLER_46_209
*1511 FILLER_46_221
*1512 FILLER_46_233
*1513 FILLER_46_245
*1514 FILLER_46_251
*1515 FILLER_46_253
*1516 FILLER_46_265
*1517 FILLER_46_27
*1518 FILLER_46_277
*1519 FILLER_46_289
*1520 FILLER_46_29
*1521 FILLER_46_297
*1522 FILLER_46_3
*1523 FILLER_46_41
*1524 FILLER_46_53
*1525 FILLER_46_65
*1526 FILLER_46_77
*1527 FILLER_46_83
*1528 FILLER_46_85
*1529 FILLER_46_97
*1530 FILLER_47_105
*1531 FILLER_47_111
*1532 FILLER_47_113
*1533 FILLER_47_125
*1534 FILLER_47_137
*1535 FILLER_47_149
*1536 FILLER_47_15
*1537 FILLER_47_161
*1538 FILLER_47_167
*1539 FILLER_47_169
*1540 FILLER_47_181
*1541 FILLER_47_193
*1542 FILLER_47_205
*1543 FILLER_47_217
*1544 FILLER_47_223
*1545 FILLER_47_225
*1546 FILLER_47_237
*1547 FILLER_47_249
*1548 FILLER_47_261
*1549 FILLER_47_27
*1550 FILLER_47_273
*1551 FILLER_47_279
*1552 FILLER_47_281
*1553 FILLER_47_293
*1554 FILLER_47_3
*1555 FILLER_47_39
*1556 FILLER_47_51
*1557 FILLER_47_55
*1558 FILLER_47_57
*1559 FILLER_47_69
*1560 FILLER_47_81
*1561 FILLER_47_93
*1562 FILLER_48_109
*1563 FILLER_48_121
*1564 FILLER_48_133
*1565 FILLER_48_139
*1566 FILLER_48_141
*1567 FILLER_48_15
*1568 FILLER_48_153
*1569 FILLER_48_165
*1570 FILLER_48_177
*1571 FILLER_48_189
*1572 FILLER_48_195
*1573 FILLER_48_197
*1574 FILLER_48_209
*1575 FILLER_48_221
*1576 FILLER_48_233
*1577 FILLER_48_245
*1578 FILLER_48_251
*1579 FILLER_48_253
*1580 FILLER_48_265
*1581 FILLER_48_27
*1582 FILLER_48_277
*1583 FILLER_48_289
*1584 FILLER_48_29
*1585 FILLER_48_297
*1586 FILLER_48_3
*1587 FILLER_48_41
*1588 FILLER_48_53
*1589 FILLER_48_65
*1590 FILLER_48_77
*1591 FILLER_48_83
*1592 FILLER_48_85
*1593 FILLER_48_97
*1594 FILLER_49_105
*1595 FILLER_49_111
*1596 FILLER_49_113
*1597 FILLER_49_125
*1598 FILLER_49_137
*1599 FILLER_49_149
*1600 FILLER_49_15
*1601 FILLER_49_161
*1602 FILLER_49_167
*1603 FILLER_49_169
*1604 FILLER_49_181
*1605 FILLER_49_193
*1606 FILLER_49_205
*1607 FILLER_49_217
*1608 FILLER_49_223
*1609 FILLER_49_225
*1610 FILLER_49_237
*1611 FILLER_49_249
*1612 FILLER_49_261
*1613 FILLER_49_27
*1614 FILLER_49_273
*1615 FILLER_49_279
*1616 FILLER_49_281
*1617 FILLER_49_293
*1618 FILLER_49_3
*1619 FILLER_49_39
*1620 FILLER_49_51
*1621 FILLER_49_55
*1622 FILLER_49_57
*1623 FILLER_49_69
*1624 FILLER_49_81
*1625 FILLER_49_93
*1626 FILLER_4_104
*1627 FILLER_4_112
*1628 FILLER_4_124
*1629 FILLER_4_136
*1630 FILLER_4_141
*1631 FILLER_4_153
*1632 FILLER_4_165
*1633 FILLER_4_177
*1634 FILLER_4_189
*1635 FILLER_4_195
*1636 FILLER_4_197
*1637 FILLER_4_209
*1638 FILLER_4_22
*1639 FILLER_4_221
*1640 FILLER_4_233
*1641 FILLER_4_245
*1642 FILLER_4_251
*1643 FILLER_4_253
*1644 FILLER_4_265
*1645 FILLER_4_277
*1646 FILLER_4_289
*1647 FILLER_4_29
*1648 FILLER_4_297
*1649 FILLER_4_3