*SPEF "ieee 1481-1999"
*DESIGN "dwisehart_ring_top"
*DATE "11:11:11 Fri 11 11, 1111"
*VENDOR "OpenRCX"
*PROGRAM "Parallel Extraction"
*VERSION "1.0"
*DESIGN_FLOW "NAME_SCOPE LOCAL" "PIN_CAP NONE"
*DIVIDER /
*DELIMITER :
*BUS_DELIMITER []
*T_UNIT 1 NS
*C_UNIT 1 PF
*R_UNIT 1 OHM
*L_UNIT 1 HENRY

*NAME_MAP
*1 io_in[0]
*2 io_in[1]
*3 io_in[2]
*4 io_in[3]
*5 io_in[4]
*6 io_in[5]
*7 io_in[6]
*8 io_in[7]
*9 io_out[0]
*10 io_out[1]
*11 io_out[2]
*12 io_out[3]
*13 io_out[4]
*14 net18
*15 net19
*16 net20
*19 _0000_
*20 _0001_
*21 _0002_
*22 _0003_
*23 _0004_
*24 _0005_
*25 _0006_
*26 _0007_
*27 _0008_
*28 _0009_
*29 _0010_
*30 _0011_
*31 _0012_
*32 _0013_
*33 _0014_
*34 _0015_
*35 _0016_
*36 _0017_
*37 _0018_
*38 _0019_
*39 _0020_
*40 _0021_
*41 _0022_
*42 _0023_
*43 _0024_
*44 _0025_
*45 _0026_
*46 _0027_
*47 _0028_
*48 _0029_
*49 _0030_
*50 _0031_
*51 _0032_
*52 _0033_
*53 _0034_
*54 _0035_
*55 _0036_
*56 _0037_
*57 _0038_
*58 _0039_
*59 _0040_
*60 _0041_
*61 _0042_
*62 _0043_
*63 _0044_
*64 _0045_
*65 _0046_
*66 _0047_
*67 _0048_
*68 _0049_
*69 _0050_
*70 _0051_
*71 _0052_
*72 _0053_
*73 _0054_
*74 _0055_
*75 _0056_
*76 _0057_
*77 _0058_
*78 _0059_
*79 _0060_
*80 _0061_
*81 _0062_
*82 _0063_
*83 _0064_
*84 _0065_
*85 _0066_
*86 _0067_
*87 _0068_
*88 _0069_
*89 _0070_
*90 _0071_
*91 _0072_
*92 _0073_
*93 _0074_
*94 _0075_
*95 _0076_
*96 _0077_
*97 _0078_
*98 _0079_
*99 _0080_
*100 _0081_
*101 _0082_
*102 _0083_
*103 _0084_
*104 _0085_
*105 _0086_
*106 _0087_
*107 _0088_
*108 _0089_
*109 _0090_
*110 _0091_
*111 _0092_
*112 _0093_
*113 _0094_
*114 _0095_
*115 _0096_
*116 _0097_
*117 _0098_
*118 _0099_
*119 _0100_
*120 _0101_
*121 _0102_
*122 _0103_
*123 _0104_
*124 _0105_
*125 _0106_
*126 _0107_
*127 _0108_
*128 _0109_
*129 _0110_
*130 _0111_
*131 _0112_
*132 _0113_
*133 _0114_
*134 _0115_
*135 _0116_
*136 _0117_
*137 _0118_
*138 _0119_
*139 _0120_
*140 _0121_
*141 _0122_
*142 _0123_
*143 _0124_
*144 _0125_
*145 _0126_
*146 _0127_
*147 _0128_
*148 _0129_
*149 _0130_
*150 _0131_
*151 _0132_
*152 _0133_
*153 _0134_
*154 _0135_
*155 _0136_
*156 _0137_
*157 _0138_
*158 _0139_
*159 _0140_
*160 _0141_
*161 _0142_
*162 _0143_
*163 _0144_
*164 _0145_
*165 _0146_
*166 _0147_
*167 _0148_
*168 _0149_
*169 _0150_
*170 _0151_
*171 _0152_
*172 _0153_
*173 _0154_
*174 _0155_
*175 _0156_
*176 _0157_
*177 _0158_
*178 _0159_
*179 _0160_
*180 _0161_
*181 _0162_
*182 _0163_
*183 _0164_
*184 _0165_
*185 _0166_
*186 _0167_
*187 _0168_
*188 _0169_
*189 _0170_
*190 _0171_
*191 _0172_
*192 _0173_
*193 _0174_
*194 _0175_
*195 _0176_
*196 _0177_
*197 _0178_
*198 _0179_
*199 _0180_
*200 _0181_
*201 _0182_
*202 _0183_
*203 _0184_
*204 _0185_
*205 _0186_
*206 _0187_
*207 _0188_
*208 _0189_
*209 _0190_
*210 _0191_
*211 _0192_
*212 _0193_
*213 _0194_
*214 _0195_
*215 _0196_
*216 _0197_
*217 _0198_
*218 _0199_
*219 _0200_
*220 _0201_
*221 _0202_
*222 _0203_
*223 _0204_
*224 _0205_
*225 _0206_
*226 _0207_
*227 _0208_
*228 _0209_
*229 _0210_
*230 _0211_
*231 _0212_
*232 _0213_
*233 _0214_
*234 _0215_
*235 _0216_
*236 _0217_
*237 _0218_
*238 _0219_
*239 _0220_
*240 _0221_
*241 _0222_
*242 _0223_
*243 _0224_
*244 _0225_
*245 _0226_
*246 _0227_
*247 _0228_
*248 _0229_
*249 _0230_
*250 _0231_
*251 _0232_
*252 _0233_
*253 _0234_
*254 _0235_
*255 _0236_
*256 _0237_
*257 _0238_
*258 _0239_
*259 _0240_
*260 _0241_
*261 _0242_
*262 _0243_
*263 _0244_
*264 _0245_
*265 _0246_
*266 _0247_
*267 _0248_
*268 _0249_
*269 _0250_
*270 _0251_
*271 _0252_
*272 _0253_
*273 _0254_
*274 _0255_
*275 _0256_
*276 _0257_
*277 _0258_
*278 _0259_
*279 _0260_
*280 _0261_
*281 _0262_
*282 _0263_
*283 _0264_
*284 _0265_
*285 _0266_
*286 _0267_
*287 _0268_
*288 _0269_
*289 _0270_
*290 _0271_
*291 _0272_
*292 _0273_
*293 _0274_
*294 _0275_
*295 _0276_
*296 _0277_
*297 _0278_
*298 _0279_
*299 _0280_
*300 _0281_
*301 _0282_
*302 _0283_
*303 _0284_
*304 _0285_
*305 _0286_
*306 _0287_
*307 _0288_
*308 _0289_
*309 _0290_
*310 _0291_
*311 _0292_
*312 _0293_
*313 _0294_
*314 _0295_
*315 _0296_
*316 _0297_
*317 _0298_
*318 _0299_
*319 _0300_
*320 _0301_
*321 _0302_
*322 _0303_
*323 _0304_
*324 _0305_
*325 _0306_
*326 _0307_
*327 _0308_
*328 _0309_
*329 _0310_
*330 _0311_
*331 _0312_
*332 _0313_
*333 _0314_
*334 _0315_
*335 _0316_
*336 _0317_
*337 _0318_
*338 _0319_
*339 _0320_
*340 _0321_
*341 _0322_
*342 _0323_
*343 _0324_
*344 _0325_
*345 _0326_
*346 _0327_
*347 _0328_
*348 _0329_
*349 _0330_
*350 _0331_
*351 _0332_
*352 _0333_
*353 _0334_
*354 _0335_
*355 _0336_
*356 _0337_
*357 _0338_
*358 _0339_
*359 _0340_
*360 _0341_
*361 _0342_
*362 _0343_
*363 _0344_
*364 _0345_
*365 _0346_
*366 _0347_
*367 _0348_
*368 _0349_
*369 _0350_
*370 _0351_
*371 _0352_
*372 _0353_
*373 _0354_
*374 _0355_
*375 _0356_
*376 _0357_
*377 _0358_
*378 _0359_
*379 _0360_
*380 _0361_
*381 _0362_
*382 _0363_
*383 _0364_
*384 _0365_
*385 _0366_
*386 _0367_
*387 _0368_
*388 _0369_
*389 _0370_
*390 _0371_
*391 _0372_
*392 _0373_
*393 _0374_
*394 _0375_
*395 _0376_
*396 _0377_
*397 _0378_
*398 _0379_
*399 _0380_
*400 _0381_
*401 _0382_
*402 _0383_
*403 _0384_
*404 _0385_
*405 _0386_
*406 _0387_
*407 _0388_
*408 _0389_
*409 _0390_
*410 _0391_
*411 _0392_
*412 _0393_
*413 _0394_
*414 _0395_
*415 _0396_
*416 _0397_
*417 _0398_
*418 _0399_
*419 _0400_
*420 _0401_
*421 _0402_
*422 _0403_
*423 _0404_
*424 _0405_
*425 _0406_
*426 _0407_
*427 _0408_
*428 _0409_
*429 _0410_
*430 _0411_
*431 _0412_
*432 _0413_
*433 _0414_
*434 _0415_
*435 _0416_
*436 _0417_
*437 _0418_
*438 _0419_
*439 _0420_
*440 _0421_
*441 _0422_
*442 _0423_
*443 _0424_
*444 _0425_
*445 _0426_
*446 _0427_
*447 _0428_
*448 _0429_
*449 _0430_
*450 _0431_
*451 _0432_
*452 _0433_
*453 _0434_
*454 _0435_
*455 _0436_
*456 _0437_
*457 _0438_
*458 _0439_
*459 _0440_
*460 _0441_
*461 _0442_
*462 _0443_
*463 _0444_
*464 _0445_
*465 _0446_
*466 _0447_
*467 _0448_
*468 _0449_
*469 _0450_
*470 _0451_
*471 _0452_
*472 _0453_
*473 _0454_
*474 _0455_
*475 _0456_
*476 _0457_
*477 _0458_
*478 _0459_
*479 _0460_
*480 _0461_
*481 _0462_
*482 _0463_
*483 _0464_
*484 _0465_
*485 _0466_
*486 _0467_
*487 _0468_
*488 _0469_
*489 _0470_
*490 _0471_
*491 _0472_
*492 _0473_
*493 _0474_
*494 _0475_
*495 _0476_
*496 _0477_
*497 _0478_
*498 _0479_
*499 _0480_
*500 _0481_
*501 _0482_
*502 _0483_
*503 _0484_
*504 _0485_
*505 _0486_
*506 _0487_
*507 _0488_
*508 _0489_
*509 _0490_
*510 _0491_
*511 _0492_
*512 _0493_
*513 _0494_
*514 _0495_
*515 _0496_
*516 _0497_
*517 _0498_
*518 _0499_
*519 _0500_
*520 _0501_
*521 _0502_
*522 _0503_
*523 _0504_
*524 _0505_
*525 _0506_
*526 _0507_
*527 _0508_
*528 _0509_
*529 _0510_
*530 _0511_
*531 _0512_
*532 _0513_
*533 _0514_
*534 _0515_
*535 _0516_
*536 _0517_
*537 _0518_
*538 _0519_
*539 _0520_
*540 _0521_
*541 _0522_
*542 _0523_
*543 _0524_
*544 _0525_
*545 _0526_
*546 _0527_
*547 _0528_
*548 _0529_
*549 _0530_
*550 _0531_
*551 _0532_
*552 _0533_
*553 _0534_
*554 _0535_
*555 _0536_
*556 _0537_
*557 _0538_
*558 _0539_
*559 _0540_
*560 _0541_
*561 _0542_
*562 _0543_
*563 _0544_
*564 _0545_
*565 _0546_
*566 _0547_
*567 _0548_
*568 _0549_
*569 _0550_
*570 _0551_
*571 _0552_
*572 _0553_
*573 _0554_
*574 _0555_
*575 _0556_
*576 _0557_
*577 _0558_
*578 _0559_
*579 _0560_
*580 _0561_
*581 _0562_
*582 _0563_
*583 _0564_
*584 _0565_
*585 _0566_
*586 _0567_
*587 _0568_
*588 _0569_
*589 _0570_
*590 _0571_
*591 _0572_
*592 _0573_
*593 _0574_
*594 _0575_
*595 _0576_
*596 _0577_
*597 _0578_
*598 _0579_
*599 _0580_
*600 _0581_
*601 _0582_
*602 _0583_
*603 _0584_
*604 _0585_
*605 _0586_
*606 _0587_
*607 _0588_
*608 _0589_
*609 _0590_
*610 _0591_
*611 _0592_
*612 _0593_
*613 _0594_
*614 _0595_
*615 _0596_
*616 _0597_
*617 _0598_
*618 _0599_
*619 _0600_
*620 _0601_
*621 _0602_
*622 _0603_
*623 _0604_
*624 _0605_
*625 _0606_
*626 _0607_
*627 _0608_
*628 _0609_
*629 _0610_
*630 _0611_
*631 _0612_
*632 _0613_
*633 _0614_
*634 _0615_
*635 _0616_
*636 _0617_
*637 _0618_
*638 _0619_
*639 _0620_
*640 _0621_
*641 _0622_
*642 _0623_
*643 _0624_
*644 _0625_
*645 _0626_
*646 _0627_
*647 _0628_
*648 _0629_
*649 _0630_
*650 _0631_
*651 _0632_
*652 _0633_
*653 _0634_
*654 _0635_
*655 _0636_
*656 _0637_
*657 _0638_
*658 _0639_
*659 _0640_
*660 _0641_
*661 _0642_
*662 _0643_
*663 _0644_
*664 _0645_
*665 _0646_
*666 _0647_
*667 _0648_
*668 _0649_
*669 _0650_
*670 _0651_
*671 _0652_
*672 _0653_
*673 _0654_
*674 _0655_
*675 _0656_
*676 _0657_
*677 _0658_
*678 _0659_
*679 _0660_
*680 _0661_
*681 _0662_
*682 _0663_
*683 _0664_
*684 _0665_
*685 _0666_
*686 _0667_
*687 _0668_
*688 _0669_
*689 _0670_
*690 _0671_
*691 _0672_
*692 _0673_
*693 _0674_
*694 _0675_
*695 _0676_
*696 _0677_
*697 _0678_
*698 _0679_
*699 _0680_
*700 _0681_
*701 _0682_
*702 _0683_
*703 _0684_
*704 _0685_
*705 _0686_
*706 _0687_
*707 _0688_
*708 _0689_
*709 _0690_
*710 _0691_
*711 _0692_
*712 _0693_
*713 _0694_
*714 _0695_
*715 _0696_
*716 _0697_
*717 _0698_
*718 _0699_
*719 _0700_
*720 _0701_
*721 _0702_
*722 _0703_
*723 _0704_
*724 _0705_
*725 _0706_
*726 _0707_
*727 _0708_
*728 _0709_
*729 _0710_
*730 _0711_
*731 _0712_
*732 _0713_
*733 _0714_
*734 _0715_
*735 _0716_
*736 _0717_
*737 _0718_
*738 _0719_
*739 _0720_
*740 _0721_
*741 _0722_
*742 _0723_
*743 _0724_
*744 _0725_
*745 _0726_
*746 _0727_
*747 _0728_
*748 _0729_
*749 _0730_
*750 _0731_
*751 _0732_
*752 _0733_
*753 _0734_
*754 _0735_
*755 _0736_
*756 _0737_
*757 _0738_
*758 _0739_
*759 _0740_
*760 _0741_
*761 _0742_
*762 _0743_
*763 _0744_
*764 _0745_
*765 _0746_
*766 _0747_
*767 _0748_
*768 _0749_
*769 _0750_
*770 _0751_
*771 _0752_
*772 _0753_
*773 _0754_
*774 _0755_
*775 _0756_
*776 _0757_
*777 _0758_
*778 _0759_
*779 _0760_
*780 _0761_
*781 _0762_
*782 _0763_
*783 _0764_
*784 _0765_
*785 _0766_
*786 _0767_
*787 _0768_
*788 _0769_
*789 _0770_
*790 _0771_
*791 _0772_
*792 _0773_
*793 _0774_
*794 _0775_
*795 _0776_
*796 _0777_
*797 _0778_
*798 _0779_
*799 _0780_
*800 _0781_
*801 _0782_
*802 _0783_
*803 _0784_
*804 _0785_
*805 _0786_
*806 _0787_
*807 _0788_
*808 _0789_
*809 _0790_
*810 _0791_
*811 _0792_
*812 _0793_
*813 _0794_
*814 _0795_
*815 _0796_
*816 _0797_
*817 _0798_
*818 _0799_
*819 _0800_
*820 _0801_
*821 _0802_
*822 _0803_
*823 _0804_
*824 _0805_
*825 _0806_
*826 _0807_
*827 _0808_
*828 _0809_
*829 _0810_
*830 _0811_
*831 _0812_
*832 _0813_
*833 _0814_
*834 _0815_
*835 _0816_
*836 _0817_
*837 _0818_
*838 _0819_
*839 _0820_
*840 _0821_
*841 _0822_
*842 _0823_
*843 _0824_
*844 _0825_
*845 _0826_
*846 _0827_
*847 _0828_
*848 _0829_
*849 _0830_
*850 _0831_
*851 _0832_
*852 _0833_
*853 _0834_
*854 _0835_
*855 _0836_
*856 _0837_
*857 _0838_
*858 _0839_
*859 _0840_
*860 _0841_
*861 _0842_
*862 _0843_
*863 _0844_
*864 _0845_
*865 _0846_
*866 _0847_
*867 _0848_
*868 _0849_
*869 _0850_
*870 _0851_
*871 _0852_
*872 _0853_
*873 _0854_
*874 _0855_
*875 _0856_
*876 _0857_
*877 _0858_
*878 _0859_
*879 _0860_
*880 _0861_
*881 _0862_
*882 _0863_
*883 _0864_
*884 _0865_
*885 _0866_
*886 _0867_
*887 _0868_
*888 _0869_
*889 _0870_
*890 _0871_
*891 _0872_
*892 _0873_
*893 _0874_
*894 _0875_
*895 _0876_
*896 _0877_
*897 _0878_
*898 _0879_
*899 _0880_
*900 _0881_
*901 _0882_
*902 _0883_
*903 _0884_
*904 _0885_
*905 _0886_
*906 _0887_
*907 _0888_
*908 _0889_
*909 _0890_
*910 _0891_
*911 _0892_
*912 _0893_
*913 _0894_
*914 _0895_
*915 _0896_
*916 _0897_
*917 _0898_
*918 _0899_
*919 _0900_
*920 _0901_
*921 _0902_
*922 _0903_
*923 _0904_
*924 _0905_
*925 _0906_
*926 _0907_
*927 _0908_
*928 _0909_
*929 _0910_
*930 _0911_
*931 _0912_
*932 _0913_
*933 _0914_
*934 _0915_
*935 _0916_
*936 _0917_
*937 _0918_
*938 _0919_
*939 _0920_
*940 _0921_
*941 _0922_
*942 _0923_
*943 _0924_
*944 _0925_
*945 clknet_0_io_in[0]
*946 clknet_3_0__leaf_io_in[0]
*947 clknet_3_1__leaf_io_in[0]
*948 clknet_3_2__leaf_io_in[0]
*949 clknet_3_3__leaf_io_in[0]
*950 clknet_3_4__leaf_io_in[0]
*951 clknet_3_5__leaf_io_in[0]
*952 clknet_3_6__leaf_io_in[0]
*953 clknet_3_7__leaf_io_in[0]
*954 m_cap_005_011\.i_rst
*955 m_cap_097\.i_001\[0\]
*956 m_cap_097\.i_001\[1\]
*957 m_cap_097\.i_001\[2\]
*958 m_cap_097\.i_001\[3\]
*959 m_cap_097\.i_001\[4\]
*960 m_cap_097\.i_010\[0\]
*961 m_cap_097\.i_010\[1\]
*962 m_cap_097\.i_010\[2\]
*963 m_cap_097\.i_010\[3\]
*964 m_cap_097\.i_010\[4\]
*965 m_cap_097\.i_100\[0\]
*966 m_cap_097\.i_100\[1\]
*967 m_cap_097\.i_100\[2\]
*968 m_cap_097\.i_100\[3\]
*969 m_cap_097\.i_100\[4\]
*970 m_cap_097\.o_001\[0\]
*971 m_cap_097\.o_001\[1\]
*972 m_cap_097\.o_001\[2\]
*973 m_cap_097\.o_001\[3\]
*974 m_cap_097\.o_001\[4\]
*975 m_cap_097\.o_010\[0\]
*976 m_cap_097\.o_010\[1\]
*977 m_cap_097\.o_010\[2\]
*978 m_cap_097\.o_010\[3\]
*979 m_cap_097\.o_010\[4\]
*980 m_cap_097\.o_100\[0\]
*981 m_cap_097\.o_100\[1\]
*982 m_cap_097\.o_100\[2\]
*983 m_cap_097\.o_100\[3\]
*984 m_cap_097\.o_100\[4\]
*985 m_cap_097\.r_cnt\[0\]
*986 m_cap_097\.r_cnt\[10\]
*987 m_cap_097\.r_cnt\[11\]
*988 m_cap_097\.r_cnt\[12\]
*989 m_cap_097\.r_cnt\[13\]
*990 m_cap_097\.r_cnt\[14\]
*991 m_cap_097\.r_cnt\[15\]
*992 m_cap_097\.r_cnt\[1\]
*993 m_cap_097\.r_cnt\[2\]
*994 m_cap_097\.r_cnt\[3\]
*995 m_cap_097\.r_cnt\[4\]
*996 m_cap_097\.r_cnt\[5\]
*997 m_cap_097\.r_cnt\[6\]
*998 m_cap_097\.r_cnt\[7\]
*999 m_cap_097\.r_cnt\[8\]
*1000 m_cap_097\.r_cnt\[9\]
*1001 m_cap_097\.r_rst\[0\]
*1002 m_cap_097\.r_rst\[1\]
*1003 m_cap_097\.r_rst\[2\]
*1004 m_cap_097\.r_rst\[3\]
*1005 m_cap_097\.r_rst\[4\]
*1006 m_cap_097\.r_rst\[5\]
*1007 m_cap_097\.r_rst\[6\]
*1008 m_grey_097\.i_clk
*1009 m_ring097d\.f_inv\$func\$\/work\/src\/ringd\.v\:35\$167\.\$result\[0\]
*1010 m_ring097d\.f_inv\$func\$\/work\/src\/ringd\.v\:35\$168\.\$result\[0\]
*1011 m_ring097d\.f_inv\$func\$\/work\/src\/ringd\.v\:35\$168\.\$result\[1\]
*1012 m_ring097d\.f_inv\$func\$\/work\/src\/ringd\.v\:35\$169\.\$result\[0\]
*1013 m_ring097d\.f_inv\$func\$\/work\/src\/ringd\.v\:35\$169\.\$result\[1\]
*1014 m_ring097d\.f_inv\$func\$\/work\/src\/ringd\.v\:35\$170\.\$result\[0\]
*1015 m_ring097d\.f_inv\$func\$\/work\/src\/ringd\.v\:35\$170\.\$result\[1\]
*1016 m_ring097d\.f_inv\$func\$\/work\/src\/ringd\.v\:35\$171\.\$result\[0\]
*1017 m_ring097d\.f_inv\$func\$\/work\/src\/ringd\.v\:35\$171\.\$result\[1\]
*1018 m_ring097d\.f_inv\$func\$\/work\/src\/ringd\.v\:35\$172\.\$result\[0\]
*1019 m_ring097d\.f_inv\$func\$\/work\/src\/ringd\.v\:35\$172\.\$result\[1\]
*1020 m_ring097d\.f_inv\$func\$\/work\/src\/ringd\.v\:35\$173\.\$result\[0\]
*1021 m_ring097d\.f_inv\$func\$\/work\/src\/ringd\.v\:35\$173\.\$result\[1\]
*1022 m_ring097d\.f_inv\$func\$\/work\/src\/ringd\.v\:35\$174\.\$result\[0\]
*1023 m_ring097d\.f_inv\$func\$\/work\/src\/ringd\.v\:35\$174\.\$result\[1\]
*1024 m_ring097d\.f_inv\$func\$\/work\/src\/ringd\.v\:35\$175\.\$result\[0\]
*1025 m_ring097d\.f_inv\$func\$\/work\/src\/ringd\.v\:35\$175\.\$result\[1\]
*1026 m_ring097d\.f_inv\$func\$\/work\/src\/ringd\.v\:35\$176\.\$result\[0\]
*1027 m_ring097d\.f_inv\$func\$\/work\/src\/ringd\.v\:35\$176\.\$result\[1\]
*1028 m_ring097d\.f_inv\$func\$\/work\/src\/ringd\.v\:35\$177\.\$result\[0\]
*1029 m_ring097d\.f_inv\$func\$\/work\/src\/ringd\.v\:35\$177\.\$result\[1\]
*1030 m_ring097d\.f_inv\$func\$\/work\/src\/ringd\.v\:35\$178\.\$result\[0\]
*1031 m_ring097d\.f_inv\$func\$\/work\/src\/ringd\.v\:35\$178\.\$result\[1\]
*1032 m_ring097d\.f_inv\$func\$\/work\/src\/ringd\.v\:35\$179\.\$result\[0\]
*1033 m_ring097d\.f_inv\$func\$\/work\/src\/ringd\.v\:35\$179\.\$result\[1\]
*1034 m_ring097d\.f_inv\$func\$\/work\/src\/ringd\.v\:35\$180\.\$result\[0\]
*1035 m_ring097d\.f_inv\$func\$\/work\/src\/ringd\.v\:35\$180\.\$result\[1\]
*1036 m_ring097d\.f_inv\$func\$\/work\/src\/ringd\.v\:35\$181\.\$result\[0\]
*1037 m_ring097d\.f_inv\$func\$\/work\/src\/ringd\.v\:35\$181\.\$result\[1\]
*1038 m_ring097d\.f_inv\$func\$\/work\/src\/ringd\.v\:35\$182\.\$result\[0\]
*1039 m_ring097d\.f_inv\$func\$\/work\/src\/ringd\.v\:35\$182\.\$result\[1\]
*1040 m_ring097d\.f_inv\$func\$\/work\/src\/ringd\.v\:35\$183\.\$result\[0\]
*1041 m_ring097d\.f_inv\$func\$\/work\/src\/ringd\.v\:35\$183\.\$result\[1\]
*1042 m_ring097d\.f_inv\$func\$\/work\/src\/ringd\.v\:35\$184\.\$result\[0\]
*1043 m_ring097d\.f_inv\$func\$\/work\/src\/ringd\.v\:35\$184\.\$result\[1\]
*1044 m_ring097d\.f_inv\$func\$\/work\/src\/ringd\.v\:35\$185\.\$result\[0\]
*1045 m_ring097d\.f_inv\$func\$\/work\/src\/ringd\.v\:35\$185\.\$result\[1\]
*1046 m_ring097d\.f_inv\$func\$\/work\/src\/ringd\.v\:35\$186\.\$result\[0\]
*1047 m_ring097d\.f_inv\$func\$\/work\/src\/ringd\.v\:35\$186\.\$result\[1\]
*1048 m_ring097d\.f_inv\$func\$\/work\/src\/ringd\.v\:35\$187\.\$result\[0\]
*1049 m_ring097d\.f_inv\$func\$\/work\/src\/ringd\.v\:35\$187\.\$result\[1\]
*1050 m_ring097d\.f_inv\$func\$\/work\/src\/ringd\.v\:35\$188\.\$result\[0\]
*1051 m_ring097d\.f_inv\$func\$\/work\/src\/ringd\.v\:35\$188\.\$result\[1\]
*1052 m_ring097d\.f_inv\$func\$\/work\/src\/ringd\.v\:35\$189\.\$result\[0\]
*1053 m_ring097d\.f_inv\$func\$\/work\/src\/ringd\.v\:35\$189\.\$result\[1\]
*1054 m_ring097d\.f_inv\$func\$\/work\/src\/ringd\.v\:35\$190\.\$result\[0\]
*1055 m_ring097d\.f_inv\$func\$\/work\/src\/ringd\.v\:35\$190\.\$result\[1\]
*1056 m_ring097d\.f_inv\$func\$\/work\/src\/ringd\.v\:35\$191\.\$result\[0\]
*1057 m_ring097d\.f_inv\$func\$\/work\/src\/ringd\.v\:35\$191\.\$result\[1\]
*1058 m_ring097d\.f_inv\$func\$\/work\/src\/ringd\.v\:35\$192\.\$result\[0\]
*1059 m_ring097d\.f_inv\$func\$\/work\/src\/ringd\.v\:35\$192\.\$result\[1\]
*1060 m_ring097d\.f_inv\$func\$\/work\/src\/ringd\.v\:35\$193\.\$result\[0\]
*1061 m_ring097d\.f_inv\$func\$\/work\/src\/ringd\.v\:35\$193\.\$result\[1\]
*1062 m_ring097d\.f_inv\$func\$\/work\/src\/ringd\.v\:35\$194\.\$result\[0\]
*1063 m_ring097d\.f_inv\$func\$\/work\/src\/ringd\.v\:35\$194\.\$result\[1\]
*1064 m_ring097d\.f_inv\$func\$\/work\/src\/ringd\.v\:35\$195\.\$result\[0\]
*1065 m_ring097d\.f_inv\$func\$\/work\/src\/ringd\.v\:35\$195\.\$result\[1\]
*1066 m_ring097d\.f_inv\$func\$\/work\/src\/ringd\.v\:35\$196\.\$result\[0\]
*1067 m_ring097d\.f_inv\$func\$\/work\/src\/ringd\.v\:35\$196\.\$result\[1\]
*1068 m_ring097d\.f_inv\$func\$\/work\/src\/ringd\.v\:35\$197\.\$result\[0\]
*1069 m_ring097d\.f_inv\$func\$\/work\/src\/ringd\.v\:35\$197\.\$result\[1\]
*1070 m_ring097d\.f_inv\$func\$\/work\/src\/ringd\.v\:35\$198\.\$result\[0\]
*1071 m_ring097d\.f_inv\$func\$\/work\/src\/ringd\.v\:35\$198\.\$result\[1\]
*1072 m_ring097d\.f_inv\$func\$\/work\/src\/ringd\.v\:35\$199\.\$result\[0\]
*1073 m_ring097d\.f_inv\$func\$\/work\/src\/ringd\.v\:35\$199\.\$result\[1\]
*1074 m_ring097d\.f_inv\$func\$\/work\/src\/ringd\.v\:35\$200\.\$result\[0\]
*1075 m_ring097d\.f_inv\$func\$\/work\/src\/ringd\.v\:35\$200\.\$result\[1\]
*1076 m_ring097d\.f_inv\$func\$\/work\/src\/ringd\.v\:35\$201\.\$result\[0\]
*1077 m_ring097d\.f_inv\$func\$\/work\/src\/ringd\.v\:35\$201\.\$result\[1\]
*1078 m_ring097d\.f_inv\$func\$\/work\/src\/ringd\.v\:35\$202\.\$result\[0\]
*1079 m_ring097d\.f_inv\$func\$\/work\/src\/ringd\.v\:35\$202\.\$result\[1\]
*1080 m_ring097d\.f_inv\$func\$\/work\/src\/ringd\.v\:35\$203\.\$result\[0\]
*1081 m_ring097d\.f_inv\$func\$\/work\/src\/ringd\.v\:35\$203\.\$result\[1\]
*1082 m_ring097d\.f_inv\$func\$\/work\/src\/ringd\.v\:35\$204\.\$result\[0\]
*1083 m_ring097d\.f_inv\$func\$\/work\/src\/ringd\.v\:35\$204\.\$result\[1\]
*1084 m_ring097d\.f_inv\$func\$\/work\/src\/ringd\.v\:35\$205\.\$result\[0\]
*1085 m_ring097d\.f_inv\$func\$\/work\/src\/ringd\.v\:35\$205\.\$result\[1\]
*1086 m_ring097d\.f_inv\$func\$\/work\/src\/ringd\.v\:35\$206\.\$result\[0\]
*1087 m_ring097d\.f_inv\$func\$\/work\/src\/ringd\.v\:35\$206\.\$result\[1\]
*1088 m_ring097d\.f_inv\$func\$\/work\/src\/ringd\.v\:35\$207\.\$result\[0\]
*1089 m_ring097d\.f_inv\$func\$\/work\/src\/ringd\.v\:35\$207\.\$result\[1\]
*1090 m_ring097d\.f_inv\$func\$\/work\/src\/ringd\.v\:35\$208\.\$result\[0\]
*1091 m_ring097d\.f_inv\$func\$\/work\/src\/ringd\.v\:35\$208\.\$result\[1\]
*1092 m_ring097d\.f_inv\$func\$\/work\/src\/ringd\.v\:35\$209\.\$result\[0\]
*1093 m_ring097d\.f_inv\$func\$\/work\/src\/ringd\.v\:35\$209\.\$result\[1\]
*1094 m_ring097d\.f_inv\$func\$\/work\/src\/ringd\.v\:35\$210\.\$result\[0\]
*1095 m_ring097d\.f_inv\$func\$\/work\/src\/ringd\.v\:35\$210\.\$result\[1\]
*1096 m_ring097d\.f_inv\$func\$\/work\/src\/ringd\.v\:35\$211\.\$result\[0\]
*1097 m_ring097d\.f_inv\$func\$\/work\/src\/ringd\.v\:35\$211\.\$result\[1\]
*1098 m_ring097d\.f_inv\$func\$\/work\/src\/ringd\.v\:35\$212\.\$result\[0\]
*1099 m_ring097d\.f_inv\$func\$\/work\/src\/ringd\.v\:35\$212\.\$result\[1\]
*1100 m_ring097d\.f_inv\$func\$\/work\/src\/ringd\.v\:35\$213\.\$result\[0\]
*1101 m_ring097d\.f_inv\$func\$\/work\/src\/ringd\.v\:35\$213\.\$result\[1\]
*1102 m_ring097d\.f_inv\$func\$\/work\/src\/ringd\.v\:35\$214\.\$result\[0\]
*1103 m_ring097d\.f_inv\$func\$\/work\/src\/ringd\.v\:35\$214\.\$result\[1\]
*1104 m_ring097d\.f_inv\$func\$\/work\/src\/ringd\.v\:35\$215\.\$result\[0\]
*1105 m_ring097d\.f_inv\$func\$\/work\/src\/ringd\.v\:35\$215\.\$result\[1\]
*1106 m_ring097d\.f_inv\$func\$\/work\/src\/ringd\.v\:35\$216\.\$result\[0\]
*1107 m_ring097d\.f_inv\$func\$\/work\/src\/ringd\.v\:35\$216\.\$result\[1\]
*1108 m_ring097d\.f_inv\$func\$\/work\/src\/ringd\.v\:35\$217\.\$result\[0\]
*1109 m_ring097d\.f_inv\$func\$\/work\/src\/ringd\.v\:35\$217\.\$result\[1\]
*1110 m_ring097d\.f_inv\$func\$\/work\/src\/ringd\.v\:35\$218\.\$result\[0\]
*1111 m_ring097d\.f_inv\$func\$\/work\/src\/ringd\.v\:35\$218\.\$result\[1\]
*1112 m_ring097d\.f_inv\$func\$\/work\/src\/ringd\.v\:35\$219\.\$result\[0\]
*1113 m_ring097d\.f_inv\$func\$\/work\/src\/ringd\.v\:35\$219\.\$result\[1\]
*1114 m_ring097d\.f_inv\$func\$\/work\/src\/ringd\.v\:35\$220\.\$result\[0\]
*1115 m_ring097d\.f_inv\$func\$\/work\/src\/ringd\.v\:35\$220\.\$result\[1\]
*1116 m_ring097d\.f_inv\$func\$\/work\/src\/ringd\.v\:35\$221\.\$result\[0\]
*1117 m_ring097d\.f_inv\$func\$\/work\/src\/ringd\.v\:35\$221\.\$result\[1\]
*1118 m_ring097d\.f_inv\$func\$\/work\/src\/ringd\.v\:35\$222\.\$result\[0\]
*1119 m_ring097d\.f_inv\$func\$\/work\/src\/ringd\.v\:35\$222\.\$result\[1\]
*1120 m_ring097d\.f_inv\$func\$\/work\/src\/ringd\.v\:35\$223\.\$result\[0\]
*1121 m_ring097d\.f_inv\$func\$\/work\/src\/ringd\.v\:35\$223\.\$result\[1\]
*1122 m_ring097d\.f_inv\$func\$\/work\/src\/ringd\.v\:35\$224\.\$result\[0\]
*1123 m_ring097d\.f_inv\$func\$\/work\/src\/ringd\.v\:35\$224\.\$result\[1\]
*1124 m_ring097d\.f_inv\$func\$\/work\/src\/ringd\.v\:35\$225\.\$result\[0\]
*1125 m_ring097d\.f_inv\$func\$\/work\/src\/ringd\.v\:35\$225\.\$result\[1\]
*1126 m_ring097d\.f_inv\$func\$\/work\/src\/ringd\.v\:35\$226\.\$result\[0\]
*1127 m_ring097d\.f_inv\$func\$\/work\/src\/ringd\.v\:35\$226\.\$result\[1\]
*1128 m_ring097d\.f_inv\$func\$\/work\/src\/ringd\.v\:35\$227\.\$result\[0\]
*1129 m_ring097d\.f_inv\$func\$\/work\/src\/ringd\.v\:35\$227\.\$result\[1\]
*1130 m_ring097d\.f_inv\$func\$\/work\/src\/ringd\.v\:35\$228\.\$result\[0\]
*1131 m_ring097d\.f_inv\$func\$\/work\/src\/ringd\.v\:35\$228\.\$result\[1\]
*1132 m_ring097d\.f_inv\$func\$\/work\/src\/ringd\.v\:35\$229\.\$result\[0\]
*1133 m_ring097d\.f_inv\$func\$\/work\/src\/ringd\.v\:35\$229\.\$result\[1\]
*1134 m_ring097d\.f_inv\$func\$\/work\/src\/ringd\.v\:35\$230\.\$result\[0\]
*1135 m_ring097d\.f_inv\$func\$\/work\/src\/ringd\.v\:35\$230\.\$result\[1\]
*1136 m_ring097d\.f_inv\$func\$\/work\/src\/ringd\.v\:35\$231\.\$result\[0\]
*1137 m_ring097d\.f_inv\$func\$\/work\/src\/ringd\.v\:35\$231\.\$result\[1\]
*1138 m_ring097d\.f_inv\$func\$\/work\/src\/ringd\.v\:35\$232\.\$result\[0\]
*1139 m_ring097d\.f_inv\$func\$\/work\/src\/ringd\.v\:35\$232\.\$result\[1\]
*1140 m_ring097d\.f_inv\$func\$\/work\/src\/ringd\.v\:35\$233\.\$result\[0\]
*1141 m_ring097d\.f_inv\$func\$\/work\/src\/ringd\.v\:35\$233\.\$result\[1\]
*1142 m_ring097d\.f_inv\$func\$\/work\/src\/ringd\.v\:35\$234\.\$result\[0\]
*1143 m_ring097d\.f_inv\$func\$\/work\/src\/ringd\.v\:35\$234\.\$result\[1\]
*1144 m_ring097d\.f_inv\$func\$\/work\/src\/ringd\.v\:35\$235\.\$result\[0\]
*1145 m_ring097d\.f_inv\$func\$\/work\/src\/ringd\.v\:35\$235\.\$result\[1\]
*1146 m_ring097d\.f_inv\$func\$\/work\/src\/ringd\.v\:35\$236\.\$result\[0\]
*1147 m_ring097d\.f_inv\$func\$\/work\/src\/ringd\.v\:35\$236\.\$result\[1\]
*1148 m_ring097d\.f_inv\$func\$\/work\/src\/ringd\.v\:35\$237\.\$result\[0\]
*1149 m_ring097d\.f_inv\$func\$\/work\/src\/ringd\.v\:35\$237\.\$result\[1\]
*1150 m_ring097d\.f_inv\$func\$\/work\/src\/ringd\.v\:35\$238\.\$result\[0\]
*1151 m_ring097d\.f_inv\$func\$\/work\/src\/ringd\.v\:35\$238\.\$result\[1\]
*1152 m_ring097d\.f_inv\$func\$\/work\/src\/ringd\.v\:35\$239\.\$result\[0\]
*1153 m_ring097d\.f_inv\$func\$\/work\/src\/ringd\.v\:35\$239\.\$result\[1\]
*1154 m_ring097d\.f_inv\$func\$\/work\/src\/ringd\.v\:35\$240\.\$result\[0\]
*1155 m_ring097d\.f_inv\$func\$\/work\/src\/ringd\.v\:35\$240\.\$result\[1\]
*1156 m_ring097d\.f_inv\$func\$\/work\/src\/ringd\.v\:35\$241\.\$result\[0\]
*1157 m_ring097d\.f_inv\$func\$\/work\/src\/ringd\.v\:35\$241\.\$result\[1\]
*1158 m_ring097d\.f_inv\$func\$\/work\/src\/ringd\.v\:35\$242\.\$result\[0\]
*1159 m_ring097d\.f_inv\$func\$\/work\/src\/ringd\.v\:35\$242\.\$result\[1\]
*1160 m_ring097d\.f_inv\$func\$\/work\/src\/ringd\.v\:35\$243\.\$result\[0\]
*1161 m_ring097d\.f_inv\$func\$\/work\/src\/ringd\.v\:35\$243\.\$result\[1\]
*1162 m_ring097d\.f_inv\$func\$\/work\/src\/ringd\.v\:35\$244\.\$result\[0\]
*1163 m_ring097d\.f_inv\$func\$\/work\/src\/ringd\.v\:35\$244\.\$result\[1\]
*1164 m_ring097d\.f_inv\$func\$\/work\/src\/ringd\.v\:35\$245\.\$result\[0\]
*1165 m_ring097d\.f_inv\$func\$\/work\/src\/ringd\.v\:35\$245\.\$result\[1\]
*1166 m_ring097d\.f_inv\$func\$\/work\/src\/ringd\.v\:35\$246\.\$result\[0\]
*1167 m_ring097d\.f_inv\$func\$\/work\/src\/ringd\.v\:35\$246\.\$result\[1\]
*1168 m_ring097d\.f_inv\$func\$\/work\/src\/ringd\.v\:35\$247\.\$result\[0\]
*1169 m_ring097d\.f_inv\$func\$\/work\/src\/ringd\.v\:35\$247\.\$result\[1\]
*1170 m_ring097d\.f_inv\$func\$\/work\/src\/ringd\.v\:35\$248\.\$result\[0\]
*1171 m_ring097d\.f_inv\$func\$\/work\/src\/ringd\.v\:35\$248\.\$result\[1\]
*1172 m_ring097d\.f_inv\$func\$\/work\/src\/ringd\.v\:35\$249\.\$result\[0\]
*1173 m_ring097d\.f_inv\$func\$\/work\/src\/ringd\.v\:35\$249\.\$result\[1\]
*1174 m_ring097d\.f_inv\$func\$\/work\/src\/ringd\.v\:35\$250\.\$result\[0\]
*1175 m_ring097d\.f_inv\$func\$\/work\/src\/ringd\.v\:35\$250\.\$result\[1\]
*1176 m_ring097d\.f_inv\$func\$\/work\/src\/ringd\.v\:35\$251\.\$result\[0\]
*1177 m_ring097d\.f_inv\$func\$\/work\/src\/ringd\.v\:35\$251\.\$result\[1\]
*1178 m_ring097d\.f_inv\$func\$\/work\/src\/ringd\.v\:35\$252\.\$result\[0\]
*1179 m_ring097d\.f_inv\$func\$\/work\/src\/ringd\.v\:35\$252\.\$result\[1\]
*1180 m_ring097d\.f_inv\$func\$\/work\/src\/ringd\.v\:35\$253\.\$result\[0\]
*1181 m_ring097d\.f_inv\$func\$\/work\/src\/ringd\.v\:35\$253\.\$result\[1\]
*1182 m_ring097d\.f_inv\$func\$\/work\/src\/ringd\.v\:35\$254\.\$result\[0\]
*1183 m_ring097d\.f_inv\$func\$\/work\/src\/ringd\.v\:35\$254\.\$result\[1\]
*1184 m_ring097d\.f_inv\$func\$\/work\/src\/ringd\.v\:35\$255\.\$result\[0\]
*1185 m_ring097d\.f_inv\$func\$\/work\/src\/ringd\.v\:35\$255\.\$result\[1\]
*1186 m_ring097d\.f_inv\$func\$\/work\/src\/ringd\.v\:35\$256\.\$result\[0\]
*1187 m_ring097d\.f_inv\$func\$\/work\/src\/ringd\.v\:35\$256\.\$result\[1\]
*1188 m_ring097d\.f_inv\$func\$\/work\/src\/ringd\.v\:35\$257\.\$result\[0\]
*1189 m_ring097d\.f_inv\$func\$\/work\/src\/ringd\.v\:35\$257\.\$result\[1\]
*1190 m_ring097d\.f_inv\$func\$\/work\/src\/ringd\.v\:35\$258\.\$result\[0\]
*1191 m_ring097d\.f_inv\$func\$\/work\/src\/ringd\.v\:35\$258\.\$result\[1\]
*1192 m_ring097d\.f_inv\$func\$\/work\/src\/ringd\.v\:35\$259\.\$result\[0\]
*1193 m_ring097d\.f_inv\$func\$\/work\/src\/ringd\.v\:35\$259\.\$result\[1\]
*1194 m_scan\.m_LED\.i_grey\[0\]
*1195 m_scan\.m_LED\.i_grey\[1\]
*1196 m_scan\.m_LED\.i_grey\[2\]
*1197 m_scan\.m_LED\.i_grey\[3\]
*1198 m_scan\.m_LED\.i_grey\[4\]
*1199 m_scan\.m_LED\.i_rst
*1200 m_scan\.r_001\[0\]
*1201 m_scan\.r_001\[1\]
*1202 m_scan\.r_001\[2\]
*1203 m_scan\.r_001\[3\]
*1204 m_scan\.r_001\[4\]
*1205 m_scan\.r_010\[0\]
*1206 m_scan\.r_010\[1\]
*1207 m_scan\.r_010\[2\]
*1208 m_scan\.r_010\[3\]
*1209 m_scan\.r_010\[4\]
*1210 m_scan\.r_100\[0\]
*1211 m_scan\.r_100\[1\]
*1212 m_scan\.r_100\[2\]
*1213 m_scan\.r_100\[3\]
*1214 m_scan\.r_100\[4\]
*1215 m_scan\.r_cnt\[0\]
*1216 m_scan\.r_cnt\[10\]
*1217 m_scan\.r_cnt\[11\]
*1218 m_scan\.r_cnt\[12\]
*1219 m_scan\.r_cnt\[13\]
*1220 m_scan\.r_cnt\[14\]
*1221 m_scan\.r_cnt\[15\]
*1222 m_scan\.r_cnt\[1\]
*1223 m_scan\.r_cnt\[2\]
*1224 m_scan\.r_cnt\[3\]
*1225 m_scan\.r_cnt\[4\]
*1226 m_scan\.r_cnt\[5\]
*1227 m_scan\.r_cnt\[6\]
*1228 m_scan\.r_cnt\[7\]
*1229 m_scan\.r_cnt\[8\]
*1230 m_scan\.r_cnt\[9\]
*1231 m_scan\.r_rst\[0\]
*1232 m_scan\.r_rst\[1\]
*1233 m_scan\.r_rst\[2\]
*1234 m_scan\.r_rst\[3\]
*1235 m_scan\.r_rst\[4\]
*1236 m_scan\.r_rst\[5\]
*1237 m_scan\.r_rst\[6\]
*1238 m_scan\.r_state\[0\]
*1239 m_scan\.r_state\[1\]
*1240 m_scan\.r_state\[2\]
*1241 m_scan\.r_state\[3\]
*1242 m_slow_grey_097\.m_001\.i_clk
*1243 m_slow_grey_097\.m_001\.o_clk_div
*1244 m_slow_grey_097\.m_001\.r_rst\[0\]
*1245 m_slow_grey_097\.m_001\.r_rst\[1\]
*1246 m_slow_grey_097\.m_001\.r_rst\[2\]
*1247 m_slow_grey_097\.m_001\.r_rst\[3\]
*1248 m_slow_grey_097\.m_001\.r_rst\[4\]
*1249 m_slow_grey_097\.m_001\.r_rst\[5\]
*1250 m_slow_grey_097\.m_001\.r_rst\[6\]
*1251 m_slow_grey_097\.m_001\.r_rst\[7\]
*1252 m_slow_grey_097\.m_001\.r_start
*1253 m_slow_grey_097\.m_010\.o_clk_div
*1254 m_slow_grey_097\.m_010\.r_rst\[0\]
*1255 m_slow_grey_097\.m_010\.r_rst\[1\]
*1256 m_slow_grey_097\.m_010\.r_rst\[2\]
*1257 m_slow_grey_097\.m_010\.r_rst\[3\]
*1258 m_slow_grey_097\.m_010\.r_rst\[4\]
*1259 m_slow_grey_097\.m_010\.r_rst\[5\]
*1260 m_slow_grey_097\.m_010\.r_rst\[6\]
*1261 m_slow_grey_097\.m_010\.r_rst\[7\]
*1262 m_slow_grey_097\.m_010\.r_start
*1263 m_slow_grey_097\.m_100\.r_rst\[0\]
*1264 m_slow_grey_097\.m_100\.r_rst\[1\]
*1265 m_slow_grey_097\.m_100\.r_rst\[2\]
*1266 m_slow_grey_097\.m_100\.r_rst\[3\]
*1267 m_slow_grey_097\.m_100\.r_rst\[4\]
*1268 m_slow_grey_097\.m_100\.r_rst\[5\]
*1269 m_slow_grey_097\.m_100\.r_rst\[6\]
*1270 m_slow_grey_097\.m_100\.r_rst\[7\]