*SPEF "ieee 1481-1999"
*DESIGN "dwisehart_top"
*DATE "11:11:11 Fri 11 11, 1111"
*VENDOR "OpenRCX"
*PROGRAM "Parallel Extraction"
*VERSION "1.0"
*DESIGN_FLOW "NAME_SCOPE LOCAL" "PIN_CAP NONE"
*DIVIDER /
*DELIMITER :
*BUS_DELIMITER []
*T_UNIT 1 NS
*C_UNIT 1 PF
*R_UNIT 1 OHM
*L_UNIT 1 HENRY

*NAME_MAP
*1 io_in[0]
*2 io_in[1]
*3 io_in[2]
*4 io_in[3]
*5 io_in[4]
*6 io_in[5]
*7 io_in[6]
*8 io_in[7]
*9 io_out[0]
*10 io_out[1]
*11 io_out[2]
*12 io_out[3]
*13 io_out[4]
*14 io_out[5]
*15 io_out[6]
*16 io_out[7]
*19 _000_
*20 _001_
*21 _002_
*22 _003_
*23 _004_
*24 _005_
*25 _006_
*26 _007_
*27 _008_
*28 _009_
*29 _010_
*30 _011_
*31 _012_
*32 _013_
*33 _014_
*34 _015_
*35 _016_
*36 _017_
*37 _018_
*38 _019_
*39 _020_
*40 _021_
*41 _022_
*42 _023_
*43 _024_
*44 _025_
*45 _026_
*46 _027_
*47 _028_
*48 _029_
*49 _030_
*50 _031_
*51 _032_
*52 _033_
*53 _034_
*54 _035_
*55 _036_
*56 _037_
*57 _038_
*58 _039_
*59 _040_
*60 _041_
*61 _042_
*62 _043_
*63 _044_
*64 _045_
*65 _046_
*66 _047_
*67 _048_
*68 _049_
*69 _050_
*70 _051_
*71 _052_
*72 _053_
*73 _054_
*74 _055_
*75 _056_
*76 _057_
*77 _058_
*78 _059_
*79 _060_
*80 _061_
*81 _062_
*82 _063_
*83 _064_
*84 _065_
*85 _066_
*86 _067_
*87 _068_
*88 _069_
*89 _070_
*90 _071_
*91 _072_
*92 _073_
*93 _074_
*94 _075_
*95 _076_
*96 _077_
*97 _078_
*98 _079_
*99 _080_
*100 _081_
*101 _082_
*102 _083_
*103 _084_
*104 _085_
*105 _086_
*106 _087_
*107 _088_
*108 _089_
*109 _090_
*110 _091_
*111 _092_
*112 _093_
*113 _094_
*114 _095_
*115 _096_
*116 _097_
*117 _098_
*118 _099_
*119 _100_
*120 _101_
*121 _102_
*122 _103_
*123 _104_
*124 _105_
*125 _106_
*126 _107_
*127 _108_
*128 _109_
*129 _110_
*130 _111_
*131 _112_
*132 _113_
*133 _114_
*134 _115_
*135 _116_
*136 _117_
*137 _118_
*138 _119_
*139 _120_
*140 _121_
*141 _122_
*142 _123_
*143 _124_
*144 _125_
*145 _126_
*146 _127_
*147 _128_
*148 _129_
*149 _130_
*150 _131_
*151 _132_
*152 _133_
*153 _134_
*154 _135_
*155 _136_
*156 _137_
*157 _138_
*158 _139_
*159 _140_
*160 _141_
*161 _142_
*162 _143_
*163 _144_
*164 _145_
*165 _146_
*166 _147_
*167 _148_
*168 _149_
*169 _150_
*170 _151_
*171 _152_
*172 _153_
*173 _154_
*174 _155_
*175 _156_
*176 _157_
*177 _158_
*178 _159_
*179 _160_
*180 _161_
*181 _162_
*182 _163_
*183 _164_
*184 _165_
*185 _166_
*186 _167_
*187 _168_
*188 _169_
*189 _170_
*190 _171_
*191 _172_
*192 _173_
*193 _174_
*194 _175_
*195 _176_
*196 _177_
*197 _178_
*198 _179_
*199 _180_
*200 _181_
*201 _182_
*202 _183_
*203 _184_
*204 _185_
*205 _186_
*206 _187_
*207 _188_
*208 _189_
*209 _190_
*210 _191_
*211 _192_
*212 _193_
*213 _194_
*214 _195_
*215 _196_
*216 _197_
*217 _198_
*218 _199_
*219 _200_
*220 _201_
*221 _202_
*222 _203_
*223 _204_
*224 _205_
*225 _206_
*226 _207_
*227 _208_
*228 _209_
*229 _210_
*230 _211_
*231 _212_
*232 _213_
*233 _214_
*234 _215_
*235 _216_
*236 _217_
*237 _218_
*238 _219_
*239 _220_
*240 _221_
*241 _222_
*242 _223_
*243 _224_
*244 _225_
*245 _226_
*246 _227_
*247 _228_
*248 _229_
*249 _230_
*250 _231_
*251 _232_
*252 _233_
*253 _234_
*254 _235_
*255 _236_
*256 _237_
*257 _238_
*258 _239_
*259 _240_
*260 _241_
*261 _242_
*262 _243_
*263 _244_
*264 _245_
*265 _246_
*266 _247_
*267 _248_
*268 _249_
*269 _250_
*270 _251_
*271 _252_
*272 _253_
*273 _254_
*274 _255_
*275 _256_
*276 _257_
*277 _258_
*278 _259_
*279 _260_
*280 _261_
*281 _262_
*282 _263_
*283 _264_
*284 _265_
*285 _266_
*286 _267_
*287 _268_
*288 _269_
*289 _270_
*290 _271_
*291 _272_
*292 _273_
*293 _274_
*294 _275_
*295 _276_
*296 _277_
*297 _278_
*298 _279_
*299 _280_
*300 _281_
*301 _282_
*302 _283_
*303 _284_
*304 _285_
*305 _286_
*306 _287_
*307 _288_
*308 _289_
*309 _290_
*310 _291_
*311 _292_
*312 _293_
*313 _294_
*314 _295_
*315 _296_
*316 _297_
*317 _298_
*318 _299_
*319 _300_
*320 _301_
*321 _302_
*322 _303_
*323 _304_
*324 _305_
*325 _306_
*326 _307_
*327 _308_
*328 _309_
*329 _310_
*330 _311_
*331 clknet_0_io_in[0]
*332 clknet_3_0__leaf_io_in[0]
*333 clknet_3_1__leaf_io_in[0]
*334 clknet_3_2__leaf_io_in[0]
*335 clknet_3_3__leaf_io_in[0]
*336 clknet_3_4__leaf_io_in[0]
*337 clknet_3_5__leaf_io_in[0]
*338 clknet_3_6__leaf_io_in[0]
*339 clknet_3_7__leaf_io_in[0]
*340 m_grey\.hunT\[0\]
*341 m_grey\.hunT\[1\]
*342 m_grey\.hunT\[2\]
*343 m_grey\.hunT\[3\]
*344 m_grey\.hunT\[4\]
*345 m_grey\.hund\[0\]
*346 m_grey\.hund\[1\]
*347 m_grey\.hund\[2\]
*348 m_grey\.hund\[3\]
*349 m_grey\.hund\[4\]
*350 m_grey\.mil\[0\]
*351 m_grey\.mil\[1\]
*352 m_grey\.mil\[2\]
*353 m_grey\.mil\[3\]
*354 m_grey\.mil\[4\]
*355 m_grey\.ones\[0\]
*356 m_grey\.ones\[1\]
*357 m_grey\.ones\[2\]
*358 m_grey\.ones\[3\]
*359 m_grey\.ones\[4\]
*360 m_grey\.r_tenM\[0\]
*361 m_grey\.r_tenM\[1\]
*362 m_grey\.r_tenM\[2\]
*363 m_grey\.r_tenM\[3\]
*364 m_grey\.r_tenM\[4\]
*365 m_grey\.r_tenT\[0\]
*366 m_grey\.r_tenT\[1\]
*367 m_grey\.r_tenT\[2\]
*368 m_grey\.r_tenT\[3\]
*369 m_grey\.r_tenT\[4\]
*370 m_grey\.r_tens\[0\]
*371 m_grey\.r_tens\[1\]
*372 m_grey\.r_tens\[2\]
*373 m_grey\.r_tens\[3\]
*374 m_grey\.r_tens\[4\]
*375 m_grey\.r_thou\[0\]
*376 m_grey\.r_thou\[1\]
*377 m_grey\.r_thou\[2\]
*378 m_grey\.r_thou\[3\]
*379 m_grey\.r_thou\[4\]
*380 net1
*381 ANTENNA_1
*382 ANTENNA_2
*383 ANTENNA_3
*384 ANTENNA_4
*385 ANTENNA_5
*386 ANTENNA_6
*387 ANTENNA_7
*388 FILLER_0_103
*389 FILLER_0_110
*390 FILLER_0_113
*391 FILLER_0_131
*392 FILLER_0_138
*393 FILLER_0_141
*394 FILLER_0_159
*395 FILLER_0_166
*396 FILLER_0_169
*397 FILLER_0_174
*398 FILLER_0_181
*399 FILLER_0_193
*400 FILLER_0_197
*401 FILLER_0_209
*402 FILLER_0_221
*403 FILLER_0_225
*404 FILLER_0_237
*405 FILLER_0_24
*406 FILLER_0_249
*407 FILLER_0_253
*408 FILLER_0_265
*409 FILLER_0_277
*410 FILLER_0_281
*411 FILLER_0_29
*412 FILLER_0_293
*413 FILLER_0_3
*414 FILLER_0_50
*415 FILLER_0_57
*416 FILLER_0_62
*417 FILLER_0_7
*418 FILLER_0_82
*419 FILLER_0_85
*420 FILLER_10_108
*421 FILLER_10_120
*422 FILLER_10_131
*423 FILLER_10_138
*424 FILLER_10_141
*425 FILLER_10_151
*426 FILLER_10_163
*427 FILLER_10_171
*428 FILLER_10_181
*429 FILLER_10_193
*430 FILLER_10_197
*431 FILLER_10_203
*432 FILLER_10_207
*433 FILLER_10_214
*434 FILLER_10_226
*435 FILLER_10_238
*436 FILLER_10_250
*437 FILLER_10_253
*438 FILLER_10_26
*439 FILLER_10_265
*440 FILLER_10_277
*441 FILLER_10_289
*442 FILLER_10_29
*443 FILLER_10_297
*444 FILLER_10_3
*445 FILLER_10_41
*446 FILLER_10_61
*447 FILLER_10_81
*448 FILLER_10_85
*449 FILLER_10_9
*450 FILLER_10_91
*451 FILLER_11_101
*452 FILLER_11_110
*453 FILLER_11_113
*454 FILLER_11_118
*455 FILLER_11_130
*456 FILLER_11_138
*457 FILLER_11_146
*458 FILLER_11_15
*459 FILLER_11_150
*460 FILLER_11_158
*461 FILLER_11_166
*462 FILLER_11_169
*463 FILLER_11_184
*464 FILLER_11_193
*465 FILLER_11_214
*466 FILLER_11_222
*467 FILLER_11_225
*468 FILLER_11_237
*469 FILLER_11_249
*470 FILLER_11_261
*471 FILLER_11_273
*472 FILLER_11_279
*473 FILLER_11_281
*474 FILLER_11_293
*475 FILLER_11_3
*476 FILLER_11_36
*477 FILLER_11_48
*478 FILLER_11_57
*479 FILLER_11_69
*480 FILLER_11_93
*481 FILLER_12_107
*482 FILLER_12_115
*483 FILLER_12_119
*484 FILLER_12_129
*485 FILLER_12_138
*486 FILLER_12_141
*487 FILLER_12_149
*488 FILLER_12_155
*489 FILLER_12_159
*490 FILLER_12_163
*491 FILLER_12_171
*492 FILLER_12_186
*493 FILLER_12_194
*494 FILLER_12_197
*495 FILLER_12_209
*496 FILLER_12_21
*497 FILLER_12_215
*498 FILLER_12_219
*499 FILLER_12_231
*500 FILLER_12_243
*501 FILLER_12_251
*502 FILLER_12_253
*503 FILLER_12_265
*504 FILLER_12_27
*505 FILLER_12_277
*506 FILLER_12_289
*507 FILLER_12_29
*508 FILLER_12_297
*509 FILLER_12_3
*510 FILLER_12_41
*511 FILLER_12_69
*512 FILLER_12_81
*513 FILLER_12_85
*514 FILLER_13_103
*515 FILLER_13_11
*516 FILLER_13_110
*517 FILLER_13_113
*518 FILLER_13_121
*519 FILLER_13_125
*520 FILLER_13_133
*521 FILLER_13_146
*522 FILLER_13_158
*523 FILLER_13_166
*524 FILLER_13_169
*525 FILLER_13_175
*526 FILLER_13_183
*527 FILLER_13_195
*528 FILLER_13_207
*529 FILLER_13_219
*530 FILLER_13_223
*531 FILLER_13_225
*532 FILLER_13_237
*533 FILLER_13_249
*534 FILLER_13_261
*535 FILLER_13_273
*536 FILLER_13_279
*537 FILLER_13_28
*538 FILLER_13_281
*539 FILLER_13_293
*540 FILLER_13_3
*541 FILLER_13_48
*542 FILLER_13_57
*543 FILLER_13_69
*544 FILLER_13_91
*545 FILLER_14_103
*546 FILLER_14_114
*547 FILLER_14_130
*548 FILLER_14_138
*549 FILLER_14_141
*550 FILLER_14_150
*551 FILLER_14_164
*552 FILLER_14_171
*553 FILLER_14_183
*554 FILLER_14_195
*555 FILLER_14_197
*556 FILLER_14_209
*557 FILLER_14_221
*558 FILLER_14_233
*559 FILLER_14_245
*560 FILLER_14_251
*561 FILLER_14_253
*562 FILLER_14_26
*563 FILLER_14_265
*564 FILLER_14_277
*565 FILLER_14_289
*566 FILLER_14_29
*567 FILLER_14_297
*568 FILLER_14_3
*569 FILLER_14_37
*570 FILLER_14_55
*571 FILLER_14_75
*572 FILLER_14_83
*573 FILLER_14_85
*574 FILLER_14_9
*575 FILLER_15_100
*576 FILLER_15_107
*577 FILLER_15_111
*578 FILLER_15_113
*579 FILLER_15_118
*580 FILLER_15_122
*581 FILLER_15_133
*582 FILLER_15_137
*583 FILLER_15_146
*584 FILLER_15_153
*585 FILLER_15_157
*586 FILLER_15_165
*587 FILLER_15_169
*588 FILLER_15_177
*589 FILLER_15_184
*590 FILLER_15_192
*591 FILLER_15_210
*592 FILLER_15_222
*593 FILLER_15_225
*594 FILLER_15_237
*595 FILLER_15_249
*596 FILLER_15_261
*597 FILLER_15_273
*598 FILLER_15_279
*599 FILLER_15_281
*600 FILLER_15_293
*601 FILLER_15_3
*602 FILLER_15_31
*603 FILLER_15_54
*604 FILLER_15_57
*605 FILLER_15_79
*606 FILLER_15_83
*607 FILLER_16_110
*608 FILLER_16_118
*609 FILLER_16_138
*610 FILLER_16_141
*611 FILLER_16_151
*612 FILLER_16_157
*613 FILLER_16_163
*614 FILLER_16_167
*615 FILLER_16_178
*616 FILLER_16_187
*617 FILLER_16_195
*618 FILLER_16_197
*619 FILLER_16_203
*620 FILLER_16_21
*621 FILLER_16_215
*622 FILLER_16_227
*623 FILLER_16_239
*624 FILLER_16_251
*625 FILLER_16_253
*626 FILLER_16_265
*627 FILLER_16_27
*628 FILLER_16_277
*629 FILLER_16_289
*630 FILLER_16_29
*631 FILLER_16_297
*632 FILLER_16_3
*633 FILLER_16_41
*634 FILLER_16_65
*635 FILLER_16_77
*636 FILLER_16_83
*637 FILLER_16_85
*638 FILLER_16_97
*639 FILLER_17_109
*640 FILLER_17_113
*641 FILLER_17_119
*642 FILLER_17_125
*643 FILLER_17_136
*644 FILLER_17_15
*645 FILLER_17_150
*646 FILLER_17_165
*647 FILLER_17_169
*648 FILLER_17_174
*649 FILLER_17_182
*650 FILLER_17_189
*651 FILLER_17_201
*652 FILLER_17_213
*653 FILLER_17_221
*654 FILLER_17_225
*655 FILLER_17_237
*656 FILLER_17_249
*657 FILLER_17_261
*658 FILLER_17_273
*659 FILLER_17_279
*660 FILLER_17_281
*661 FILLER_17_293
*662 FILLER_17_3
*663 FILLER_17_36
*664 FILLER_17_48
*665 FILLER_17_57
*666 FILLER_17_85
*667 FILLER_17_97
*668 FILLER_18_103
*669 FILLER_18_110
*670 FILLER_18_120
*671 FILLER_18_131
*672 FILLER_18_138
*673 FILLER_18_141
*674 FILLER_18_152
*675 FILLER_18_162
*676 FILLER_18_170
*677 FILLER_18_180
*678 FILLER_18_187
*679 FILLER_18_195
*680 FILLER_18_197
*681 FILLER_18_209
*682 FILLER_18_221
*683 FILLER_18_233
*684 FILLER_18_245
*685 FILLER_18_251
*686 FILLER_18_253
*687 FILLER_18_26
*688 FILLER_18_265
*689 FILLER_18_277
*690 FILLER_18_289
*691 FILLER_18_29
*692 FILLER_18_297
*693 FILLER_18_3
*694 FILLER_18_41
*695 FILLER_18_45
*696 FILLER_18_62
*697 FILLER_18_82
*698 FILLER_18_85
*699 FILLER_18_9
*700 FILLER_19_107
*701 FILLER_19_111
*702 FILLER_19_113
*703 FILLER_19_127
*704 FILLER_19_136
*705 FILLER_19_148
*706 FILLER_19_15
*707 FILLER_19_158
*708 FILLER_19_166
*709 FILLER_19_169
*710 FILLER_19_182
*711 FILLER_19_194
*712 FILLER_19_206
*713 FILLER_19_218
*714 FILLER_19_225
*715 FILLER_19_237
*716 FILLER_19_249
*717 FILLER_19_261
*718 FILLER_19_273
*719 FILLER_19_279
*720 FILLER_19_281
*721 FILLER_19_293
*722 FILLER_19_3
*723 FILLER_19_33
*724 FILLER_19_54
*725 FILLER_19_57
*726 FILLER_19_76
*727 FILLER_19_93
*728 FILLER_1_102
*729 FILLER_1_110
*730 FILLER_1_113
*731 FILLER_1_131
*732 FILLER_1_15
*733 FILLER_1_151
*734 FILLER_1_160
*735 FILLER_1_169
*736 FILLER_1_174
*737 FILLER_1_186
*738 FILLER_1_198
*739 FILLER_1_210
*740 FILLER_1_222
*741 FILLER_1_225
*742 FILLER_1_237
*743 FILLER_1_249
*744 FILLER_1_261
*745 FILLER_1_273
*746 FILLER_1_279
*747 FILLER_1_281
*748 FILLER_1_293
*749 FILLER_1_3
*750 FILLER_1_36
*751 FILLER_1_47
*752 FILLER_1_54
*753 FILLER_1_57
*754 FILLER_1_62
*755 FILLER_1_69
*756 FILLER_1_93
*757 FILLER_20_107
*758 FILLER_20_116
*759 FILLER_20_129
*760 FILLER_20_138
*761 FILLER_20_141
*762 FILLER_20_152
*763 FILLER_20_163
*764 FILLER_20_170
*765 FILLER_20_178
*766 FILLER_20_187
*767 FILLER_20_195
*768 FILLER_20_197
*769 FILLER_20_209
*770 FILLER_20_221
*771 FILLER_20_233
*772 FILLER_20_245
*773 FILLER_20_251
*774 FILLER_20_253
*775 FILLER_20_26
*776 FILLER_20_265
*777 FILLER_20_277
*778 FILLER_20_289
*779 FILLER_20_29
*780 FILLER_20_297
*781 FILLER_20_3
*782 FILLER_20_41
*783 FILLER_20_63
*784 FILLER_20_75
*785 FILLER_20_82
*786 FILLER_20_85
*787 FILLER_20_9
*788 FILLER_20_95
*789 FILLER_21_102
*790 FILLER_21_109
*791 FILLER_21_11
*792 FILLER_21_113
*793 FILLER_21_121
*794 FILLER_21_139
*795 FILLER_21_14
*796 FILLER_21_149
*797 FILLER_21_156
*798 FILLER_21_169
*799 FILLER_21_181
*800 FILLER_21_193
*801 FILLER_21_205
*802 FILLER_21_217
*803 FILLER_21_223
*804 FILLER_21_225
*805 FILLER_21_237
*806 FILLER_21_249
*807 FILLER_21_261
*808 FILLER_21_273
*809 FILLER_21_279
*810 FILLER_21_281
*811 FILLER_21_293
*812 FILLER_21_3
*813 FILLER_21_32
*814 FILLER_21_54
*815 FILLER_21_57
*816 FILLER_21_69
*817 FILLER_21_89
*818 FILLER_21_93
*819 FILLER_22_104
*820 FILLER_22_112
*821 FILLER_22_121
*822 FILLER_22_133
*823 FILLER_22_139
*824 FILLER_22_141
*825 FILLER_22_151
*826 FILLER_22_163
*827 FILLER_22_175
*828 FILLER_22_187
*829 FILLER_22_195
*830 FILLER_22_197
*831 FILLER_22_209
*832 FILLER_22_21
*833 FILLER_22_221
*834 FILLER_22_233
*835 FILLER_22_245
*836 FILLER_22_251
*837 FILLER_22_253
*838 FILLER_22_265
*839 FILLER_22_27
*840 FILLER_22_277
*841 FILLER_22_289
*842 FILLER_22_29
*843 FILLER_22_297
*844 FILLER_22_3
*845 FILLER_22_48
*846 FILLER_22_56
*847 FILLER_22_60
*848 FILLER_22_80
*849 FILLER_22_85
*850 FILLER_22_90
*851 FILLER_23_110
*852 FILLER_23_113
*853 FILLER_23_126
*854 FILLER_23_147
*855 FILLER_23_15
*856 FILLER_23_151
*857 FILLER_23_162
*858 FILLER_23_169
*859 FILLER_23_181
*860 FILLER_23_193
*861 FILLER_23_205
*862 FILLER_23_217
*863 FILLER_23_223
*864 FILLER_23_225
*865 FILLER_23_237
*866 FILLER_23_249
*867 FILLER_23_261
*868 FILLER_23_27
*869 FILLER_23_273
*870 FILLER_23_279
*871 FILLER_23_281
*872 FILLER_23_293
*873 FILLER_23_3
*874 FILLER_23_35
*875 FILLER_23_39
*876 FILLER_23_43
*877 FILLER_23_48
*878 FILLER_23_57
*879 FILLER_23_75
*880 FILLER_23_83
*881 FILLER_23_94
*882 FILLER_24_106
*883 FILLER_24_115
*884 FILLER_24_122
*885 FILLER_24_134
*886 FILLER_24_141
*887 FILLER_24_15
*888 FILLER_24_151
*889 FILLER_24_163
*890 FILLER_24_175
*891 FILLER_24_183
*892 FILLER_24_190
*893 FILLER_24_197
*894 FILLER_24_209
*895 FILLER_24_21
*896 FILLER_24_221
*897 FILLER_24_233
*898 FILLER_24_245
*899 FILLER_24_251
*900 FILLER_24_253
*901 FILLER_24_265
*902 FILLER_24_27
*903 FILLER_24_277
*904 FILLER_24_289
*905 FILLER_24_29
*906 FILLER_24_297
*907 FILLER_24_3
*908 FILLER_24_36
*909 FILLER_24_44
*910 FILLER_24_50
*911 FILLER_24_59
*912 FILLER_24_67
*913 FILLER_24_77
*914 FILLER_24_83
*915 FILLER_24_85
*916 FILLER_24_92
*917 FILLER_24_98
*918 FILLER_25_103
*919 FILLER_25_110
*920 FILLER_25_113
*921 FILLER_25_118
*922 FILLER_25_13
*923 FILLER_25_147
*924 FILLER_25_159
*925 FILLER_25_167
*926 FILLER_25_169
*927 FILLER_25_180
*928 FILLER_25_19
*929 FILLER_25_197
*930 FILLER_25_209
*931 FILLER_25_221
*932 FILLER_25_225
*933 FILLER_25_23
*934 FILLER_25_237
*935 FILLER_25_249
*936 FILLER_25_261
*937 FILLER_25_273
*938 FILLER_25_279
*939 FILLER_25_281
*940 FILLER_25_293
*941 FILLER_25_3
*942 FILLER_25_30
*943 FILLER_25_37
*944 FILLER_25_50
*945 FILLER_25_57
*946 FILLER_25_66
*947 FILLER_25_72
*948 FILLER_25_82
*949 FILLER_25_89
*950 FILLER_26_104
*951 FILLER_26_112
*952 FILLER_26_122
*953 FILLER_26_134
*954 FILLER_26_141
*955 FILLER_26_159
*956 FILLER_26_17
*957 FILLER_26_171
*958 FILLER_26_183
*959 FILLER_26_195
*960 FILLER_26_197
*961 FILLER_26_209
*962 FILLER_26_221
*963 FILLER_26_233
*964 FILLER_26_245
*965 FILLER_26_25
*966 FILLER_26_251
*967 FILLER_26_253
*968 FILLER_26_265
*969 FILLER_26_277
*970 FILLER_26_289
*971 FILLER_26_29
*972 FILLER_26_297
*973 FILLER_26_3
*974 FILLER_26_41
*975 FILLER_26_47
*976 FILLER_26_55
*977 FILLER_26_65
*978 FILLER_26_73
*979 FILLER_26_8
*980 FILLER_26_82
*981 FILLER_26_85
*982 FILLER_27_11
*983 FILLER_27_110
*984 FILLER_27_113
*985 FILLER_27_117
*986 FILLER_27_125
*987 FILLER_27_133
*988 FILLER_27_144
*989 FILLER_27_15
*990 FILLER_27_161
*991 FILLER_27_167
*992 FILLER_27_169
*993 FILLER_27_177
*994 FILLER_27_189
*995 FILLER_27_201
*996 FILLER_27_213
*997 FILLER_27_22
*998 FILLER_27_221
*999 FILLER_27_225
*1000 FILLER_27_237
*1001 FILLER_27_249
*1002 FILLER_27_261
*1003 FILLER_27_273
*1004 FILLER_27_279
*1005 FILLER_27_281
*1006 FILLER_27_293
*1007 FILLER_27_3
*1008 FILLER_27_30
*1009 FILLER_27_39
*1010 FILLER_27_43
*1011 FILLER_27_47
*1012 FILLER_27_54
*1013 FILLER_27_57
*1014 FILLER_27_67
*1015 FILLER_27_71
*1016 FILLER_27_79
*1017 FILLER_27_91
*1018 FILLER_28_105
*1019 FILLER_28_117
*1020 FILLER_28_124
*1021 FILLER_28_136
*1022 FILLER_28_141
*1023 FILLER_28_153
*1024 FILLER_28_165
*1025 FILLER_28_177
*1026 FILLER_28_189
*1027 FILLER_28_195
*1028 FILLER_28_197
*1029 FILLER_28_20
*1030 FILLER_28_209
*1031 FILLER_28_221
*1032 FILLER_28_233
*1033 FILLER_28_245
*1034 FILLER_28_251
*1035 FILLER_28_253
*1036 FILLER_28_265
*1037 FILLER_28_277
*1038 FILLER_28_289
*1039 FILLER_28_29
*1040 FILLER_28_297
*1041 FILLER_28_3
*1042 FILLER_28_35
*1043 FILLER_28_42
*1044 FILLER_28_53
*1045 FILLER_28_82
*1046 FILLER_28_85
*1047 FILLER_28_9
*1048 FILLER_28_96
*1049 FILLER_29_10
*1050 FILLER_29_106
*1051 FILLER_29_113
*1052 FILLER_29_130
*1053 FILLER_29_142
*1054 FILLER_29_15
*1055 FILLER_29_154
*1056 FILLER_29_166
*1057 FILLER_29_169
*1058 FILLER_29_181
*1059 FILLER_29_193
*1060 FILLER_29_205
*1061 FILLER_29_217
*1062 FILLER_29_22
*1063 FILLER_29_223
*1064 FILLER_29_225
*1065 FILLER_29_237
*1066 FILLER_29_249
*1067 FILLER_29_261
*1068 FILLER_29_273
*1069 FILLER_29_279
*1070 FILLER_29_281
*1071 FILLER_29_293
*1072 FILLER_29_3
*1073 FILLER_29_31
*1074 FILLER_29_39
*1075 FILLER_29_43
*1076 FILLER_29_54
*1077 FILLER_29_57
*1078 FILLER_29_63
*1079 FILLER_29_7
*1080 FILLER_29_70
*1081 FILLER_29_82
*1082 FILLER_29_90
*1083 FILLER_29_94
*1084 FILLER_2_103
*1085 FILLER_2_123
*1086 FILLER_2_131
*1087 FILLER_2_138
*1088 FILLER_2_141
*1089 FILLER_2_159
*1090 FILLER_2_168
*1091 FILLER_2_184
*1092 FILLER_2_197
*1093 FILLER_2_209
*1094 FILLER_2_221
*1095 FILLER_2_233
*1096 FILLER_2_245
*1097 FILLER_2_251
*1098 FILLER_2_253
*1099 FILLER_2_26
*1100 FILLER_2_265
*1101 FILLER_2_277
*1102 FILLER_2_289
*1103 FILLER_2_29
*1104 FILLER_2_297
*1105 FILLER_2_3
*1106 FILLER_2_37
*1107 FILLER_2_42
*1108 FILLER_2_62
*1109 FILLER_2_82
*1110 FILLER_2_85
*1111 FILLER_2_9
*1112 FILLER_30_105
*1113 FILLER_30_112
*1114 FILLER_30_124
*1115 FILLER_30_136
*1116 FILLER_30_141
*1117 FILLER_30_153
*1118 FILLER_30_165
*1119 FILLER_30_177
*1120 FILLER_30_189
*1121 FILLER_30_195
*1122 FILLER_30_197
*1123 FILLER_30_209
*1124 FILLER_30_221
*1125 FILLER_30_23
*1126 FILLER_30_233
*1127 FILLER_30_245
*1128 FILLER_30_251
*1129 FILLER_30_253
*1130 FILLER_30_265
*1131 FILLER_30_27
*1132 FILLER_30_277
*1133 FILLER_30_289
*1134 FILLER_30_29
*1135 FILLER_30_297
*1136 FILLER_30_3
*1137 FILLER_30_38
*1138 FILLER_30_44
*1139 FILLER_30_52
*1140 FILLER_30_61
*1141 FILLER_30_67
*1142 FILLER_30_73
*1143 FILLER_30_81
*1144 FILLER_30_85
*1145 FILLER_30_9
*1146 FILLER_30_97
*1147 FILLER_31_110
*1148 FILLER_31_113
*1149 FILLER_31_125
*1150 FILLER_31_131
*1151 FILLER_31_135
*1152 FILLER_31_144
*1153 FILLER_31_15
*1154 FILLER_31_156
*1155 FILLER_31_169
*1156 FILLER_31_181
*1157 FILLER_31_193
*1158 FILLER_31_205
*1159 FILLER_31_217
*1160 FILLER_31_223
*1161 FILLER_31_225
*1162 FILLER_31_237
*1163 FILLER_31_249
*1164 FILLER_31_26
*1165 FILLER_31_261
*1166 FILLER_31_273
*1167 FILLER_31_279
*1168 FILLER_31_281
*1169 FILLER_31_293
*1170 FILLER_31_3
*1171 FILLER_31_39
*1172 FILLER_31_46
*1173 FILLER_31_54
*1174 FILLER_31_57
*1175 FILLER_31_67
*1176 FILLER_31_78
*1177 FILLER_31_82
*1178 FILLER_31_86
*1179 FILLER_31_98
*1180 FILLER_32_103
*1181 FILLER_32_11
*1182 FILLER_32_110
*1183 FILLER_32_122
*1184 FILLER_32_134
*1185 FILLER_32_141
*1186 FILLER_32_153
*1187 FILLER_32_165
*1188 FILLER_32_177
*1189 FILLER_32_189
*1190 FILLER_32_195
*1191 FILLER_32_197
*1192 FILLER_32_20
*1193 FILLER_32_209
*1194 FILLER_32_221
*1195 FILLER_32_233
*1196 FILLER_32_245
*1197 FILLER_32_251
*1198 FILLER_32_253
*1199 FILLER_32_265
*1200 FILLER_32_277
*1201 FILLER_32_289
*1202 FILLER_32_29
*1203 FILLER_32_297
*1204 FILLER_32_3
*1205 FILLER_32_36
*1206 FILLER_32_44
*1207 FILLER_32_51
*1208 FILLER_32_63
*1209 FILLER_32_69
*1210 FILLER_32_73
*1211 FILLER_32_81
*1212 FILLER_32_85
*1213 FILLER_32_91
*1214 FILLER_33_106
*1215 FILLER_33_113
*1216 FILLER_33_125
*1217 FILLER_33_137
*1218 FILLER_33_149
*1219 FILLER_33_15
*1220 FILLER_33_161
*1221 FILLER_33_167
*1222 FILLER_33_169
*1223 FILLER_33_181
*1224 FILLER_33_193
*1225 FILLER_33_205
*1226 FILLER_33_217
*1227 FILLER_33_223
*1228 FILLER_33_225
*1229 FILLER_33_237
*1230 FILLER_33_249
*1231 FILLER_33_261
*1232 FILLER_33_273
*1233 FILLER_33_279
*1234 FILLER_33_28
*1235 FILLER_33_281
*1236 FILLER_33_293
*1237 FILLER_33_3
*1238 FILLER_33_40
*1239 FILLER_33_52
*1240 FILLER_33_57
*1241 FILLER_33_69
*1242 FILLER_33_77
*1243 FILLER_33_86
*1244 FILLER_33_94
*1245 FILLER_34_10
*1246 FILLER_34_109
*1247 FILLER_34_121
*1248 FILLER_34_133
*1249 FILLER_34_139
*1250 FILLER_34_141
*1251 FILLER_34_153
*1252 FILLER_34_165
*1253 FILLER_34_177
*1254 FILLER_34_189
*1255 FILLER_34_195
*1256 FILLER_34_197
*1257 FILLER_34_209
*1258 FILLER_34_22
*1259 FILLER_34_221
*1260 FILLER_34_233
*1261 FILLER_34_245
*1262 FILLER_34_251
*1263 FILLER_34_253
*1264 FILLER_34_265
*1265 FILLER_34_277
*1266 FILLER_34_289
*1267 FILLER_34_29
*1268 FILLER_34_297
*1269 FILLER_34_3
*1270 FILLER_34_41
*1271 FILLER_34_50
*1272 FILLER_34_63
*1273 FILLER_34_74
*1274 FILLER_34_82
*1275 FILLER_34_85
*1276 FILLER_34_97
*1277 FILLER_35_103
*1278 FILLER_35_111
*1279 FILLER_35_113
*1280 FILLER_35_125
*1281 FILLER_35_13
*1282 FILLER_35_137
*1283 FILLER_35_149
*1284 FILLER_35_161
*1285 FILLER_35_167
*1286 FILLER_35_169
*1287 FILLER_35_181
*1288 FILLER_35_193
*1289 FILLER_35_205
*1290 FILLER_35_21
*1291 FILLER_35_217
*1292 FILLER_35_223
*1293 FILLER_35_225
*1294 FILLER_35_237
*1295 FILLER_35_249
*1296 FILLER_35_261
*1297 FILLER_35_27
*1298 FILLER_35_273
*1299 FILLER_35_279
*1300 FILLER_35_281
*1301 FILLER_35_293
*1302 FILLER_35_3
*1303 FILLER_35_35
*1304 FILLER_35_41
*1305 FILLER_35_48
*1306 FILLER_35_57
*1307 FILLER_35_69
*1308 FILLER_35_75
*1309 FILLER_35_79
*1310 FILLER_35_85
*1311 FILLER_35_9
*1312 FILLER_36_10
*1313 FILLER_36_109
*1314 FILLER_36_121
*1315 FILLER_36_133
*1316 FILLER_36_139
*1317 FILLER_36_141
*1318 FILLER_36_153
*1319 FILLER_36_165
*1320 FILLER_36_177
*1321 FILLER_36_189
*1322 FILLER_36_195
*1323 FILLER_36_197
*1324 FILLER_36_209
*1325 FILLER_36_22
*1326 FILLER_36_221
*1327 FILLER_36_233
*1328 FILLER_36_245
*1329 FILLER_36_251
*1330 FILLER_36_253
*1331 FILLER_36_265
*1332 FILLER_36_277
*1333 FILLER_36_289
*1334 FILLER_36_29
*1335 FILLER_36_297
*1336 FILLER_36_3
*1337 FILLER_36_41
*1338 FILLER_36_49
*1339 FILLER_36_54
*1340 FILLER_36_66
*1341 FILLER_36_78
*1342 FILLER_36_85
*1343 FILLER_36_97
*1344 FILLER_37_102
*1345 FILLER_37_110
*1346 FILLER_37_113
*1347 FILLER_37_125
*1348 FILLER_37_137
*1349 FILLER_37_149
*1350 FILLER_37_161
*1351 FILLER_37_167
*1352 FILLER_37_169
*1353 FILLER_37_17
*1354 FILLER_37_181
*1355 FILLER_37_193
*1356 FILLER_37_205
*1357 FILLER_37_217
*1358 FILLER_37_223
*1359 FILLER_37_225
*1360 FILLER_37_237
*1361 FILLER_37_249
*1362 FILLER_37_261
*1363 FILLER_37_273
*1364 FILLER_37_279
*1365 FILLER_37_281
*1366 FILLER_37_29
*1367 FILLER_37_293
*1368 FILLER_37_3
*1369 FILLER_37_41
*1370 FILLER_37_53
*1371 FILLER_37_57
*1372 FILLER_37_69
*1373 FILLER_37_78
*1374 FILLER_37_9
*1375 FILLER_37_90
*1376 FILLER_38_109
*1377 FILLER_38_11
*1378 FILLER_38_121
*1379 FILLER_38_133
*1380 FILLER_38_139
*1381 FILLER_38_141
*1382 FILLER_38_153
*1383 FILLER_38_165
*1384 FILLER_38_177
*1385 FILLER_38_189
*1386 FILLER_38_195
*1387 FILLER_38_197
*1388 FILLER_38_209
*1389 FILLER_38_221
*1390 FILLER_38_23
*1391 FILLER_38_233
*1392 FILLER_38_245
*1393 FILLER_38_251
*1394 FILLER_38_253
*1395 FILLER_38_265
*1396 FILLER_38_27
*1397 FILLER_38_277
*1398 FILLER_38_289
*1399 FILLER_38_29
*1400 FILLER_38_297
*1401 FILLER_38_3
*1402 FILLER_38_33
*1403 FILLER_38_39
*1404 FILLER_38_51
*1405 FILLER_38_56
*1406 FILLER_38_68
*1407 FILLER_38_80
*1408 FILLER_38_85
*1409 FILLER_38_97
*1410 FILLER_39_105
*1411 FILLER_39_111
*1412 FILLER_39_113
*1413 FILLER_39_125
*1414 FILLER_39_131
*1415 FILLER_39_136
*1416 FILLER_39_148
*1417 FILLER_39_15
*1418 FILLER_39_160
*1419 FILLER_39_169
*1420 FILLER_39_181
*1421 FILLER_39_193
*1422 FILLER_39_205
*1423 FILLER_39_217
*1424 FILLER_39_223
*1425 FILLER_39_225
*1426 FILLER_39_237
*1427 FILLER_39_249
*1428 FILLER_39_261
*1429 FILLER_39_27
*1430 FILLER_39_273
*1431 FILLER_39_279
*1432 FILLER_39_281
*1433 FILLER_39_293
*1434 FILLER_39_3
*1435 FILLER_39_39
*1436 FILLER_39_49
*1437 FILLER_39_55
*1438 FILLER_39_57
*1439 FILLER_39_69
*1440 FILLER_39_77
*1441 FILLER_39_81
*1442 FILLER_39_93
*1443 FILLER_3_108
*1444 FILLER_3_11
*1445 FILLER_3_129
*1446 FILLER_3_133
*1447 FILLER_3_151
*1448 FILLER_3_162
*1449 FILLER_3_169
*1450 FILLER_3_17
*1451 FILLER_3_178
*1452 FILLER_3_190
*1453 FILLER_3_202
*1454 FILLER_3_214
*1455 FILLER_3_222
*1456 FILLER_3_225
*1457 FILLER_3_237
*1458 FILLER_3_249
*1459 FILLER_3_261
*1460 FILLER_3_273
*1461 FILLER_3_279
*1462 FILLER_3_281
*1463 FILLER_3_293
*1464 FILLER_3_3
*1465 FILLER_3_34
*1466 FILLER_3_54
*1467 FILLER_3_57
*1468 FILLER_3_75
*1469 FILLER_3_83
*1470 FILLER_3_88
*1471 FILLER_40_109
*1472 FILLER_40_121
*1473 FILLER_40_133
*1474 FILLER_40_139
*1475 FILLER_40_141
*1476 FILLER_40_15
*1477 FILLER_40_153
*1478 FILLER_40_165
*1479 FILLER_40_177
*1480 FILLER_40_189
*1481 FILLER_40_195
*1482 FILLER_40_197
*1483 FILLER_40_209
*1484 FILLER_40_221
*1485 FILLER_40_233
*1486 FILLER_40_245
*1487 FILLER_40_251
*1488 FILLER_40_253
*1489 FILLER_40_265
*1490 FILLER_40_27
*1491 FILLER_40_277
*1492 FILLER_40_289
*1493 FILLER_40_29
*1494 FILLER_40_297
*1495 FILLER_40_3
*1496 FILLER_40_41
*1497 FILLER_40_53
*1498 FILLER_40_65
*1499 FILLER_40_77
*1500 FILLER_40_83
*1501 FILLER_40_85
*1502 FILLER_40_97
*1503 FILLER_41_105
*1504 FILLER_41_111
*1505 FILLER_41_113
*1506 FILLER_41_125
*1507 FILLER_41_137
*1508 FILLER_41_149
*1509 FILLER_41_15
*1510 FILLER_41_161
*1511 FILLER_41_167
*1512 FILLER_41_169
*1513 FILLER_41_181
*1514 FILLER_41_193
*1515 FILLER_41_205
*1516 FILLER_41_217
*1517 FILLER_41_223
*1518 FILLER_41_225
*1519 FILLER_41_237
*1520 FILLER_41_249
*1521 FILLER_41_261
*1522 FILLER_41_27
*1523 FILLER_41_273
*1524 FILLER_41_279
*1525 FILLER_41_281
*1526 FILLER_41_293
*1527 FILLER_41_3
*1528 FILLER_41_39
*1529 FILLER_41_51
*1530 FILLER_41_55
*1531 FILLER_41_57
*1532 FILLER_41_69
*1533 FILLER_41_81
*1534 FILLER_41_93
*1535 FILLER_42_109
*1536 FILLER_42_121
*1537 FILLER_42_133
*1538 FILLER_42_139
*1539 FILLER_42_141
*1540 FILLER_42_15
*1541 FILLER_42_153
*1542 FILLER_42_165
*1543 FILLER_42_177
*1544 FILLER_42_189
*1545 FILLER_42_195
*1546 FILLER_42_197
*1547 FILLER_42_209
*1548 FILLER_42_221
*1549 FILLER_42_233
*1550 FILLER_42_245
*1551 FILLER_42_251
*1552 FILLER_42_253
*1553 FILLER_42_265
*1554 FILLER_42_27
*1555 FILLER_42_277
*1556 FILLER_42_289
*1557 FILLER_42_29
*1558 FILLER_42_297
*1559 FILLER_42_3
*1560 FILLER_42_41
*1561 FILLER_42_53
*1562 FILLER_42_60
*1563 FILLER_42_72
*1564 FILLER_42_85
*1565 FILLER_42_97
*1566 FILLER_43_105
*1567 FILLER_43_111
*1568 FILLER_43_113
*1569 FILLER_43_125
*1570 FILLER_43_137
*1571 FILLER_43_149
*1572 FILLER_43_15
*1573 FILLER_43_161
*1574 FILLER_43_167
*1575 FILLER_43_169
*1576 FILLER_43_181
*1577 FILLER_43_193
*1578 FILLER_43_205
*1579 FILLER_43_217
*1580 FILLER_43_223
*1581 FILLER_43_225
*1582 FILLER_43_237
*1583 FILLER_43_249
*1584 FILLER_43_25
*1585 FILLER_43_261
*1586 FILLER_43_273
*1587 FILLER_43_279
*1588 FILLER_43_281
*1589 FILLER_43_293
*1590 FILLER_43_3
*1591 FILLER_43_37
*1592 FILLER_43_49
*1593 FILLER_43_55
*1594 FILLER_43_57
*1595 FILLER_43_69
*1596 FILLER_43_81
*1597 FILLER_43_93
*1598 FILLER_44_109
*1599 FILLER_44_121
*1600 FILLER_44_133
*1601 FILLER_44_139
*1602 FILLER_44_141
*1603 FILLER_44_15
*1604 FILLER_44_153
*1605 FILLER_44_165
*1606 FILLER_44_177
*1607 FILLER_44_189
*1608 FILLER_44_195
*1609 FILLER_44_197
*1610 FILLER_44_209
*1611 FILLER_44_221
*1612 FILLER_44_233
*1613 FILLER_44_245
*1614 FILLER_44_251
*1615 FILLER_44_253
*1616 FILLER_44_265
*1617 FILLER_44_27
*1618 FILLER_44_277
*1619 FILLER_44_289
*1620 FILLER_44_29
*1621 FILLER_44_297
*1622 FILLER_44_3
*1623 FILLER_44_41
*1624 FILLER_44_53
*1625 FILLER_44_65
*1626 FILLER_44_77
*1627 FILLER_44_83
*1628 FILLER_44_85
*1629 FILLER_44_97
*1630 FILLER_45_105
*1631 FILLER_45_111
*1632 FILLER_45_113
*1633 FILLER_45_125
*1634 FILLER_45_137
*1635 FILLER_45_149
*1636 FILLER_45_15
*1637 FILLER_45_161
*1638 FILLER_45_167
*1639 FILLER_45_169
*1640 FILLER_45_181
*1641 FILLER_45_193
*1642 FILLER_45_205
*1643 FILLER_45_217
*1644 FILLER_45_223
*1645 FILLER_45_225
*1646 FILLER_45_237
*1647 FILLER_45_249
*1648 FILLER_45_261
*1649 FILLER_45_27
*1650 FILLER_45_273
*1651 FILLER_45_279
*1652 FILLER_45_281
*1653 FILLER_45_293
*1654 FILLER_45_3
*1655 FILLER_45_39
*1656 FILLER_45_51
*1657 FILLER_45_55
*1658 FILLER_45_57
*1659 FILLER_45_69
*1660 FILLER_45_81
*1661 FILLER_45_93
*1662 FILLER_46_109
*1663 FILLER_46_121
*1664 FILLER_46_133
*1665 FILLER_46_139
*1666 FILLER_46_141
*1667 FILLER_46_15
*1668 FILLER_46_153
*1669 FILLER_46_165
*1670 FILLER_46_177
*1671 FILLER_46_189
*1672 FILLER_46_195
*1673 FILLER_46_197
*1674 FILLER_46_209
*1675 FILLER_46_221
*1676 FILLER_46_233
*1677 FILLER_46_245
*1678 FILLER_46_251
*1679 FILLER_46_253
*1680 FILLER_46_265
*1681 FILLER_46_27
*1682 FILLER_46_277
*1683 FILLER_46_289
*1684 FILLER_46_29
*1685 FILLER_46_297
*1686 FILLER_46_3
*1687 FILLER_46_41