*SPEF "ieee 1481-1999"
*DESIGN "dwisehart_top"
*DATE "11:11:11 Fri 11 11, 1111"
*VENDOR "OpenRCX"
*PROGRAM "Parallel Extraction"
*VERSION "1.0"
*DESIGN_FLOW "NAME_SCOPE LOCAL" "PIN_CAP NONE"
*DIVIDER /
*DELIMITER :
*BUS_DELIMITER []
*T_UNIT 1 NS
*C_UNIT 1 PF
*R_UNIT 1 OHM
*L_UNIT 1 HENRY

*NAME_MAP
*1 io_in[0]
*2 io_in[1]
*3 io_in[2]
*4 io_in[3]
*5 io_in[4]
*6 io_in[5]
*7 io_in[6]
*8 io_in[7]
*9 io_out[0]
*10 io_out[1]
*11 io_out[2]
*12 io_out[3]
*13 io_out[4]
*14 io_out[5]
*15 io_out[6]
*16 io_out[7]
*19 _0000_
*20 _0001_
*21 _0002_
*22 _0003_
*23 _0004_
*24 _0005_
*25 _0006_
*26 _0007_
*27 _0008_
*28 _0009_
*29 _0010_
*30 _0011_
*31 _0012_
*32 _0013_
*33 _0014_
*34 _0015_
*35 _0016_
*36 _0017_
*37 _0018_
*38 _0019_
*39 _0020_
*40 _0021_
*41 _0022_
*42 _0023_
*43 _0024_
*44 _0025_
*45 _0026_
*46 _0027_
*47 _0028_
*48 _0029_
*49 _0030_
*50 _0031_
*51 _0032_
*52 _0033_
*53 _0034_
*54 _0035_
*55 _0036_
*56 _0037_
*57 _0038_
*58 _0039_
*59 _0040_
*60 _0041_
*61 _0042_
*62 _0043_
*63 _0044_
*64 _0045_
*65 _0046_
*66 _0047_
*67 _0048_
*68 _0049_
*69 _0050_
*70 _0051_
*71 _0052_
*72 _0053_
*73 _0054_
*74 _0055_
*75 _0056_
*76 _0057_
*77 _0058_
*78 _0059_
*79 _0060_
*80 _0061_
*81 _0062_
*82 _0063_
*83 _0064_
*84 _0065_
*85 _0066_
*86 _0067_
*87 _0068_
*88 _0069_
*89 _0070_
*90 _0071_
*91 _0072_
*92 _0073_
*93 _0074_
*94 _0075_
*95 _0076_
*96 _0077_
*97 _0078_
*98 _0079_
*99 _0080_
*100 _0081_
*101 _0082_
*102 _0083_
*103 _0084_
*104 _0085_
*105 _0086_
*106 _0087_
*107 _0088_
*108 _0089_
*109 _0090_
*110 _0091_
*111 _0092_
*112 _0093_
*113 _0094_
*114 _0095_
*115 _0096_
*116 _0097_
*117 _0098_
*118 _0099_
*119 _0100_
*120 _0101_
*121 _0102_
*122 _0103_
*123 _0104_
*124 _0105_
*125 _0106_
*126 _0107_
*127 _0108_
*128 _0109_
*129 _0110_
*130 _0111_
*131 _0112_
*132 _0113_
*133 _0114_
*134 _0115_
*135 _0116_
*136 _0117_
*137 _0118_
*138 _0119_
*139 _0120_
*140 _0121_
*141 _0122_
*142 _0123_
*143 _0124_
*144 _0125_
*145 _0126_
*146 _0127_
*147 _0128_
*148 _0129_
*149 _0130_
*150 _0131_
*151 _0132_
*152 _0133_
*153 _0134_
*154 _0135_
*155 _0136_
*156 _0137_
*157 _0138_
*158 _0139_
*159 _0140_
*160 _0141_
*161 _0142_
*162 _0143_
*163 _0144_
*164 _0145_
*165 _0146_
*166 _0147_
*167 _0148_
*168 _0149_
*169 _0150_
*170 _0151_
*171 _0152_
*172 _0153_
*173 _0154_
*174 _0155_
*175 _0156_
*176 _0157_
*177 _0158_
*178 _0159_
*179 _0160_
*180 _0161_
*181 _0162_
*182 _0163_
*183 _0164_
*184 _0165_
*185 _0166_
*186 _0167_
*187 _0168_
*188 _0169_
*189 _0170_
*190 _0171_
*191 _0172_
*192 _0173_
*193 _0174_
*194 _0175_
*195 _0176_
*196 _0177_
*197 _0178_
*198 _0179_
*199 _0180_
*200 _0181_
*201 _0182_
*202 _0183_
*203 _0184_
*204 _0185_
*205 _0186_
*206 _0187_
*207 _0188_
*208 _0189_
*209 _0190_
*210 _0191_
*211 _0192_
*212 _0193_
*213 _0194_
*214 _0195_
*215 _0196_
*216 _0197_
*217 _0198_
*218 _0199_
*219 _0200_
*220 _0201_
*221 _0202_
*222 _0203_
*223 _0204_
*224 _0205_
*225 _0206_
*226 _0207_
*227 _0208_
*228 _0209_
*229 _0210_
*230 _0211_
*231 _0212_
*232 _0213_
*233 _0214_
*234 _0215_
*235 _0216_
*236 _0217_
*237 _0218_
*238 _0219_
*239 _0220_
*240 _0221_
*241 _0222_
*242 _0223_
*243 _0224_
*244 _0225_
*245 _0226_
*246 _0227_
*247 _0228_
*248 _0229_
*249 _0230_
*250 _0231_
*251 _0232_
*252 _0233_
*253 _0234_
*254 _0235_
*255 _0236_
*256 _0237_
*257 _0238_
*258 _0239_
*259 _0240_
*260 _0241_
*261 _0242_
*262 _0243_
*263 _0244_
*264 _0245_
*265 _0246_
*266 _0247_
*267 _0248_
*268 _0249_
*269 _0250_
*270 _0251_
*271 _0252_
*272 _0253_
*273 _0254_
*274 _0255_
*275 _0256_
*276 _0257_
*277 _0258_
*278 _0259_
*279 _0260_
*280 _0261_
*281 _0262_
*282 _0263_
*283 _0264_
*284 _0265_
*285 _0266_
*286 _0267_
*287 _0268_
*288 _0269_
*289 _0270_
*290 _0271_
*291 _0272_
*292 _0273_
*293 _0274_
*294 _0275_
*295 _0276_
*296 _0277_
*297 _0278_
*298 _0279_
*299 _0280_
*300 _0281_
*301 _0282_
*302 _0283_
*303 _0284_
*304 _0285_
*305 _0286_
*306 _0287_
*307 _0288_
*308 _0289_
*309 _0290_
*310 _0291_
*311 _0292_
*312 _0293_
*313 _0294_
*314 _0295_
*315 _0296_
*316 _0297_
*317 _0298_
*318 _0299_
*319 _0300_
*320 _0301_
*321 _0302_
*322 _0303_
*323 _0304_
*324 _0305_
*325 _0306_
*326 _0307_
*327 _0308_
*328 _0309_
*329 _0310_
*330 _0311_
*331 _0312_
*332 _0313_
*333 _0314_
*334 _0315_
*335 _0316_
*336 _0317_
*337 _0318_
*338 _0319_
*339 _0320_
*340 _0321_
*341 _0322_
*342 _0323_
*343 _0324_
*344 _0325_
*345 _0326_
*346 _0327_
*347 _0328_
*348 _0329_
*349 _0330_
*350 _0331_
*351 _0332_
*352 _0333_
*353 _0334_
*354 _0335_
*355 _0336_
*356 _0337_
*357 _0338_
*358 _0339_
*359 _0340_
*360 _0341_
*361 _0342_
*362 _0343_
*363 _0344_
*364 _0345_
*365 _0346_
*366 _0347_
*367 _0348_
*368 _0349_
*369 _0350_
*370 _0351_
*371 _0352_
*372 _0353_
*373 _0354_
*374 _0355_
*375 _0356_
*376 _0357_
*377 _0358_
*378 _0359_
*379 _0360_
*380 _0361_
*381 _0362_
*382 _0363_
*383 _0364_
*384 _0365_
*385 _0366_
*386 _0367_
*387 _0368_
*388 _0369_
*389 _0370_
*390 _0371_
*391 _0372_
*392 _0373_
*393 _0374_
*394 _0375_
*395 _0376_
*396 _0377_
*397 _0378_
*398 _0379_
*399 _0380_
*400 _0381_
*401 _0382_
*402 _0383_
*403 _0384_
*404 _0385_
*405 _0386_
*406 _0387_
*407 _0388_
*408 _0389_
*409 _0390_
*410 _0391_
*411 _0392_
*412 _0393_
*413 _0394_
*414 _0395_
*415 _0396_
*416 _0397_
*417 _0398_
*418 _0399_
*419 _0400_
*420 _0401_
*421 _0402_
*422 _0403_
*423 _0404_
*424 _0405_
*425 _0406_
*426 _0407_
*427 _0408_
*428 _0409_
*429 _0410_
*430 _0411_
*431 _0412_
*432 _0413_
*433 _0414_
*434 _0415_
*435 _0416_
*436 _0417_
*437 _0418_
*438 _0419_
*439 _0420_
*440 _0421_
*441 _0422_
*442 _0423_
*443 _0424_
*444 _0425_
*445 _0426_
*446 _0427_
*447 _0428_
*448 _0429_
*449 _0430_
*450 _0431_
*451 _0432_
*452 _0433_
*453 _0434_
*454 _0435_
*455 _0436_
*456 _0437_
*457 _0438_
*458 _0439_
*459 _0440_
*460 _0441_
*461 _0442_
*462 _0443_
*463 _0444_
*464 _0445_
*465 _0446_
*466 _0447_
*467 _0448_
*468 _0449_
*469 _0450_
*470 _0451_
*471 _0452_
*472 _0453_
*473 _0454_
*474 _0455_
*475 _0456_
*476 _0457_
*477 _0458_
*478 _0459_
*479 _0460_
*480 _0461_
*481 _0462_
*482 _0463_
*483 _0464_
*484 _0465_
*485 _0466_
*486 _0467_
*487 _0468_
*488 _0469_
*489 _0470_
*490 _0471_
*491 _0472_
*492 _0473_
*493 _0474_
*494 _0475_
*495 _0476_
*496 _0477_
*497 _0478_
*498 _0479_
*499 _0480_
*500 _0481_
*501 _0482_
*502 _0483_
*503 _0484_
*504 _0485_
*505 _0486_
*506 _0487_
*507 _0488_
*508 _0489_
*509 _0490_
*510 _0491_
*511 _0492_
*512 _0493_
*513 _0494_
*514 _0495_
*515 _0496_
*516 _0497_
*517 _0498_
*518 _0499_
*519 _0500_
*520 _0501_
*521 _0502_
*522 _0503_
*523 _0504_
*524 _0505_
*525 _0506_
*526 _0507_
*527 _0508_
*528 _0509_
*529 _0510_
*530 _0511_
*531 _0512_
*532 _0513_
*533 _0514_
*534 _0515_
*535 _0516_
*536 _0517_
*537 _0518_
*538 _0519_
*539 _0520_
*540 _0521_
*541 _0522_
*542 _0523_
*543 clknet_0_io_in[0]
*544 clknet_4_0_0_io_in[0]
*545 clknet_4_10_0_io_in[0]
*546 clknet_4_11_0_io_in[0]
*547 clknet_4_12_0_io_in[0]
*548 clknet_4_13_0_io_in[0]
*549 clknet_4_14_0_io_in[0]
*550 clknet_4_15_0_io_in[0]
*551 clknet_4_1_0_io_in[0]
*552 clknet_4_2_0_io_in[0]
*553 clknet_4_3_0_io_in[0]
*554 clknet_4_4_0_io_in[0]
*555 clknet_4_5_0_io_in[0]
*556 clknet_4_6_0_io_in[0]
*557 clknet_4_7_0_io_in[0]
*558 clknet_4_8_0_io_in[0]
*559 clknet_4_9_0_io_in[0]
*560 m_grey\.bil\[0\]
*561 m_grey\.bil\[1\]
*562 m_grey\.bil\[2\]
*563 m_grey\.bil\[3\]
*564 m_grey\.bil\[4\]
*565 m_grey\.hunB\[0\]
*566 m_grey\.hunB\[1\]
*567 m_grey\.hunB\[2\]
*568 m_grey\.hunB\[3\]
*569 m_grey\.hunB\[4\]
*570 m_grey\.hunM\[0\]
*571 m_grey\.hunM\[1\]
*572 m_grey\.hunM\[2\]
*573 m_grey\.hunM\[3\]
*574 m_grey\.hunM\[4\]
*575 m_grey\.hunT\[0\]
*576 m_grey\.hunT\[1\]
*577 m_grey\.hunT\[2\]
*578 m_grey\.hunT\[3\]
*579 m_grey\.hunT\[4\]
*580 m_grey\.hund\[0\]
*581 m_grey\.hund\[1\]
*582 m_grey\.hund\[2\]
*583 m_grey\.hund\[3\]
*584 m_grey\.hund\[4\]
*585 m_grey\.mil\[0\]
*586 m_grey\.mil\[1\]
*587 m_grey\.mil\[2\]
*588 m_grey\.mil\[3\]
*589 m_grey\.mil\[4\]
*590 m_grey\.ones\[0\]
*591 m_grey\.ones\[1\]
*592 m_grey\.ones\[2\]
*593 m_grey\.ones\[3\]
*594 m_grey\.ones\[4\]
*595 m_grey\.r_clk
*596 m_grey\.r_tenB\[0\]
*597 m_grey\.r_tenB\[1\]
*598 m_grey\.r_tenB\[2\]
*599 m_grey\.r_tenB\[3\]
*600 m_grey\.r_tenB\[4\]
*601 m_grey\.r_tenM\[0\]
*602 m_grey\.r_tenM\[1\]
*603 m_grey\.r_tenM\[2\]
*604 m_grey\.r_tenM\[3\]
*605 m_grey\.r_tenM\[4\]
*606 m_grey\.r_tenT\[0\]
*607 m_grey\.r_tenT\[1\]
*608 m_grey\.r_tenT\[2\]
*609 m_grey\.r_tenT\[3\]
*610 m_grey\.r_tenT\[4\]
*611 m_grey\.r_tens\[0\]
*612 m_grey\.r_tens\[1\]
*613 m_grey\.r_tens\[2\]
*614 m_grey\.r_tens\[3\]
*615 m_grey\.r_tens\[4\]
*616 m_grey\.r_thou\[0\]
*617 m_grey\.r_thou\[1\]
*618 m_grey\.r_thou\[2\]
*619 m_grey\.r_thou\[3\]
*620 m_grey\.r_thou\[4\]
*621 net1
*622 net2
*623 net3
*624 net4
*625 net5
*626 net6
*627 net7
*628 ANTENNA_1
*629 ANTENNA_10
*630 ANTENNA_11
*631 ANTENNA_12
*632 ANTENNA_13
*633 ANTENNA_14
*634 ANTENNA_15
*635 ANTENNA_16
*636 ANTENNA_17
*637 ANTENNA_18
*638 ANTENNA_19
*639 ANTENNA_2
*640 ANTENNA_20
*641 ANTENNA_21
*642 ANTENNA_22
*643 ANTENNA_23
*644 ANTENNA_24
*645 ANTENNA_25
*646 ANTENNA_26
*647 ANTENNA_27
*648 ANTENNA_28
*649 ANTENNA_29
*650 ANTENNA_3
*651 ANTENNA_30
*652 ANTENNA_31
*653 ANTENNA_32
*654 ANTENNA_33
*655 ANTENNA_34
*656 ANTENNA_35
*657 ANTENNA_36
*658 ANTENNA_37
*659 ANTENNA_38
*660 ANTENNA_4
*661 ANTENNA_5
*662 ANTENNA_6
*663 ANTENNA_7
*664 ANTENNA_8
*665 ANTENNA_9
*666 FILLER_0_10
*667 FILLER_0_107
*668 FILLER_0_111
*669 FILLER_0_113
*670 FILLER_0_119
*671 FILLER_0_126
*672 FILLER_0_136
*673 FILLER_0_141
*674 FILLER_0_153
*675 FILLER_0_162
*676 FILLER_0_169
*677 FILLER_0_175
*678 FILLER_0_183
*679 FILLER_0_190
*680 FILLER_0_197
*681 FILLER_0_202
*682 FILLER_0_209
*683 FILLER_0_218
*684 FILLER_0_22
*685 FILLER_0_225
*686 FILLER_0_230
*687 FILLER_0_242
*688 FILLER_0_250
*689 FILLER_0_253
*690 FILLER_0_265
*691 FILLER_0_277
*692 FILLER_0_281
*693 FILLER_0_29
*694 FILLER_0_293
*695 FILLER_0_3
*696 FILLER_0_47
*697 FILLER_0_54
*698 FILLER_0_57
*699 FILLER_0_66
*700 FILLER_0_79
*701 FILLER_0_83
*702 FILLER_0_85
*703 FILLER_0_91
*704 FILLER_0_99
*705 FILLER_10_103
*706 FILLER_10_107
*707 FILLER_10_115
*708 FILLER_10_133
*709 FILLER_10_139
*710 FILLER_10_141
*711 FILLER_10_145
*712 FILLER_10_149
*713 FILLER_10_160
*714 FILLER_10_164
*715 FILLER_10_172
*716 FILLER_10_183
*717 FILLER_10_191
*718 FILLER_10_195
*719 FILLER_10_197
*720 FILLER_10_204
*721 FILLER_10_216
*722 FILLER_10_224
*723 FILLER_10_233
*724 FILLER_10_245
*725 FILLER_10_251
*726 FILLER_10_253
*727 FILLER_10_26
*728 FILLER_10_265
*729 FILLER_10_277
*730 FILLER_10_289
*731 FILLER_10_29
*732 FILLER_10_297
*733 FILLER_10_3
*734 FILLER_10_51
*735 FILLER_10_66
*736 FILLER_10_80
*737 FILLER_10_85
*738 FILLER_10_9
*739 FILLER_11_101
*740 FILLER_11_110
*741 FILLER_11_113
*742 FILLER_11_128
*743 FILLER_11_139
*744 FILLER_11_144
*745 FILLER_11_148
*746 FILLER_11_166
*747 FILLER_11_169
*748 FILLER_11_17
*749 FILLER_11_175
*750 FILLER_11_183
*751 FILLER_11_193
*752 FILLER_11_201
*753 FILLER_11_209
*754 FILLER_11_217
*755 FILLER_11_223
*756 FILLER_11_225
*757 FILLER_11_230
*758 FILLER_11_242
*759 FILLER_11_254
*760 FILLER_11_266
*761 FILLER_11_278
*762 FILLER_11_281
*763 FILLER_11_293
*764 FILLER_11_3
*765 FILLER_11_34
*766 FILLER_11_54
*767 FILLER_11_57
*768 FILLER_11_75
*769 FILLER_11_86
*770 FILLER_11_9
*771 FILLER_12_103
*772 FILLER_12_111
*773 FILLER_12_129
*774 FILLER_12_138
*775 FILLER_12_157
*776 FILLER_12_161
*777 FILLER_12_166
*778 FILLER_12_178
*779 FILLER_12_186
*780 FILLER_12_194
*781 FILLER_12_197
*782 FILLER_12_210
*783 FILLER_12_22
*784 FILLER_12_224
*785 FILLER_12_235
*786 FILLER_12_242
*787 FILLER_12_250
*788 FILLER_12_253
*789 FILLER_12_265
*790 FILLER_12_277
*791 FILLER_12_289
*792 FILLER_12_29
*793 FILLER_12_297
*794 FILLER_12_3
*795 FILLER_12_34
*796 FILLER_12_54
*797 FILLER_12_66
*798 FILLER_12_78
*799 FILLER_12_85
*800 FILLER_13_100
*801 FILLER_13_110
*802 FILLER_13_113
*803 FILLER_13_118
*804 FILLER_13_139
*805 FILLER_13_149
*806 FILLER_13_15
*807 FILLER_13_160
*808 FILLER_13_169
*809 FILLER_13_179
*810 FILLER_13_188
*811 FILLER_13_194
*812 FILLER_13_209
*813 FILLER_13_221
*814 FILLER_13_225
*815 FILLER_13_229
*816 FILLER_13_23
*817 FILLER_13_236
*818 FILLER_13_243
*819 FILLER_13_255
*820 FILLER_13_267
*821 FILLER_13_279
*822 FILLER_13_281
*823 FILLER_13_293
*824 FILLER_13_3
*825 FILLER_13_40
*826 FILLER_13_52
*827 FILLER_13_57
*828 FILLER_13_61
*829 FILLER_13_70
*830 FILLER_13_74
*831 FILLER_13_92
*832 FILLER_14_101
*833 FILLER_14_11
*834 FILLER_14_119
*835 FILLER_14_134
*836 FILLER_14_141
*837 FILLER_14_150
*838 FILLER_14_159
*839 FILLER_14_170
*840 FILLER_14_186
*841 FILLER_14_193
*842 FILLER_14_197
*843 FILLER_14_202
*844 FILLER_14_209
*845 FILLER_14_221
*846 FILLER_14_23
*847 FILLER_14_233
*848 FILLER_14_245
*849 FILLER_14_251
*850 FILLER_14_253
*851 FILLER_14_265
*852 FILLER_14_27
*853 FILLER_14_277
*854 FILLER_14_289
*855 FILLER_14_29
*856 FILLER_14_297
*857 FILLER_14_3
*858 FILLER_14_47
*859 FILLER_14_59
*860 FILLER_14_65
*861 FILLER_14_82
*862 FILLER_14_85
*863 FILLER_14_95
*864 FILLER_15_110
*865 FILLER_15_113
*866 FILLER_15_124
*867 FILLER_15_136
*868 FILLER_15_144
*869 FILLER_15_154
*870 FILLER_15_165
*871 FILLER_15_174
*872 FILLER_15_178
*873 FILLER_15_185
*874 FILLER_15_194
*875 FILLER_15_202
*876 FILLER_15_21
*877 FILLER_15_214
*878 FILLER_15_222
*879 FILLER_15_225
*880 FILLER_15_237
*881 FILLER_15_249
*882 FILLER_15_261
*883 FILLER_15_273
*884 FILLER_15_279
*885 FILLER_15_281
*886 FILLER_15_29
*887 FILLER_15_293
*888 FILLER_15_3
*889 FILLER_15_34
*890 FILLER_15_54
*891 FILLER_15_57
*892 FILLER_15_75
*893 FILLER_15_95
*894 FILLER_16_119
*895 FILLER_16_133
*896 FILLER_16_139
*897 FILLER_16_141
*898 FILLER_16_147
*899 FILLER_16_158
*900 FILLER_16_175
*901 FILLER_16_192
*902 FILLER_16_197
*903 FILLER_16_204
*904 FILLER_16_212
*905 FILLER_16_218
*906 FILLER_16_236
*907 FILLER_16_242
*908 FILLER_16_246
*909 FILLER_16_25
*910 FILLER_16_253
*911 FILLER_16_265
*912 FILLER_16_277
*913 FILLER_16_289
*914 FILLER_16_29
*915 FILLER_16_297
*916 FILLER_16_3
*917 FILLER_16_42
*918 FILLER_16_50
*919 FILLER_16_67
*920 FILLER_16_79
*921 FILLER_16_83
*922 FILLER_16_85
*923 FILLER_16_97
*924 FILLER_17_106
*925 FILLER_17_113
*926 FILLER_17_131
*927 FILLER_17_139
*928 FILLER_17_150
*929 FILLER_17_158
*930 FILLER_17_166
*931 FILLER_17_169
*932 FILLER_17_174
*933 FILLER_17_186
*934 FILLER_17_192
*935 FILLER_17_200
*936 FILLER_17_208
*937 FILLER_17_21
*938 FILLER_17_216
*939 FILLER_17_225
*940 FILLER_17_237
*941 FILLER_17_249
*942 FILLER_17_261
*943 FILLER_17_273
*944 FILLER_17_279
*945 FILLER_17_281
*946 FILLER_17_29
*947 FILLER_17_293
*948 FILLER_17_3
*949 FILLER_17_46
*950 FILLER_17_54
*951 FILLER_17_57
*952 FILLER_17_70
*953 FILLER_17_74
*954 FILLER_17_91
*955 FILLER_18_117
*956 FILLER_18_132
*957 FILLER_18_141
*958 FILLER_18_146
*959 FILLER_18_157
*960 FILLER_18_168
*961 FILLER_18_176
*962 FILLER_18_184
*963 FILLER_18_197
*964 FILLER_18_205
*965 FILLER_18_21
*966 FILLER_18_219
*967 FILLER_18_223
*968 FILLER_18_233
*969 FILLER_18_245
*970 FILLER_18_251
*971 FILLER_18_253
*972 FILLER_18_265
*973 FILLER_18_27
*974 FILLER_18_277
*975 FILLER_18_289
*976 FILLER_18_29
*977 FILLER_18_297
*978 FILLER_18_3
*979 FILLER_18_34
*980 FILLER_18_40
*981 FILLER_18_57
*982 FILLER_18_77
*983 FILLER_18_83
*984 FILLER_18_85
*985 FILLER_18_89
*986 FILLER_18_97
*987 FILLER_19_110
*988 FILLER_19_113
*989 FILLER_19_124
*990 FILLER_19_130
*991 FILLER_19_147
*992 FILLER_19_159
*993 FILLER_19_166
*994 FILLER_19_169
*995 FILLER_19_176
*996 FILLER_19_184
*997 FILLER_19_188
*998 FILLER_19_196
*999 FILLER_19_206
*1000 FILLER_19_21
*1001 FILLER_19_212
*1002 FILLER_19_219
*1003 FILLER_19_223
*1004 FILLER_19_225
*1005 FILLER_19_237
*1006 FILLER_19_249
*1007 FILLER_19_25
*1008 FILLER_19_254
*1009 FILLER_19_266
*1010 FILLER_19_278
*1011 FILLER_19_281
*1012 FILLER_19_293
*1013 FILLER_19_3
*1014 FILLER_19_34
*1015 FILLER_19_54
*1016 FILLER_19_57
*1017 FILLER_19_69
*1018 FILLER_19_75
*1019 FILLER_19_84
*1020 FILLER_19_92
*1021 FILLER_1_100
*1022 FILLER_1_109
*1023 FILLER_1_113
*1024 FILLER_1_122
*1025 FILLER_1_130
*1026 FILLER_1_148
*1027 FILLER_1_162
*1028 FILLER_1_169
*1029 FILLER_1_175
*1030 FILLER_1_191
*1031 FILLER_1_199
*1032 FILLER_1_207
*1033 FILLER_1_21
*1034 FILLER_1_212
*1035 FILLER_1_221
*1036 FILLER_1_225
*1037 FILLER_1_229
*1038 FILLER_1_235
*1039 FILLER_1_247
*1040 FILLER_1_259
*1041 FILLER_1_271
*1042 FILLER_1_279
*1043 FILLER_1_281
*1044 FILLER_1_293
*1045 FILLER_1_3
*1046 FILLER_1_30
*1047 FILLER_1_54
*1048 FILLER_1_57
*1049 FILLER_1_71
*1050 FILLER_1_96
*1051 FILLER_20_101
*1052 FILLER_20_109
*1053 FILLER_20_121
*1054 FILLER_20_129
*1055 FILLER_20_138
*1056 FILLER_20_141
*1057 FILLER_20_159
*1058 FILLER_20_167
*1059 FILLER_20_185
*1060 FILLER_20_189
*1061 FILLER_20_194
*1062 FILLER_20_197
*1063 FILLER_20_21
*1064 FILLER_20_212
*1065 FILLER_20_224
*1066 FILLER_20_236
*1067 FILLER_20_248
*1068 FILLER_20_25
*1069 FILLER_20_253
*1070 FILLER_20_265
*1071 FILLER_20_277
*1072 FILLER_20_289
*1073 FILLER_20_29
*1074 FILLER_20_297
*1075 FILLER_20_3
*1076 FILLER_20_50
*1077 FILLER_20_58
*1078 FILLER_20_75
*1079 FILLER_20_82
*1080 FILLER_20_85
*1081 FILLER_20_93
*1082 FILLER_21_103
*1083 FILLER_21_111
*1084 FILLER_21_113
*1085 FILLER_21_129
*1086 FILLER_21_13
*1087 FILLER_21_149
*1088 FILLER_21_160
*1089 FILLER_21_169
*1090 FILLER_21_174
*1091 FILLER_21_184
*1092 FILLER_21_188
*1093 FILLER_21_197
*1094 FILLER_21_222
*1095 FILLER_21_225
*1096 FILLER_21_237
*1097 FILLER_21_249
*1098 FILLER_21_261
*1099 FILLER_21_273
*1100 FILLER_21_279
*1101 FILLER_21_281
*1102 FILLER_21_293
*1103 FILLER_21_3
*1104 FILLER_21_30
*1105 FILLER_21_51
*1106 FILLER_21_55
*1107 FILLER_21_57
*1108 FILLER_21_67
*1109 FILLER_21_71
*1110 FILLER_21_83
*1111 FILLER_21_9
*1112 FILLER_22_107
*1113 FILLER_22_114
*1114 FILLER_22_125
*1115 FILLER_22_134
*1116 FILLER_22_141
*1117 FILLER_22_149
*1118 FILLER_22_160
*1119 FILLER_22_172
*1120 FILLER_22_183
*1121 FILLER_22_187
*1122 FILLER_22_194
*1123 FILLER_22_197
*1124 FILLER_22_204
*1125 FILLER_22_216
*1126 FILLER_22_220
*1127 FILLER_22_228
*1128 FILLER_22_240
*1129 FILLER_22_253
*1130 FILLER_22_26
*1131 FILLER_22_265
*1132 FILLER_22_277
*1133 FILLER_22_289
*1134 FILLER_22_29
*1135 FILLER_22_297
*1136 FILLER_22_3
*1137 FILLER_22_35
*1138 FILLER_22_53
*1139 FILLER_22_74
*1140 FILLER_22_82
*1141 FILLER_22_85
*1142 FILLER_22_9
*1143 FILLER_23_102
*1144 FILLER_23_110
*1145 FILLER_23_113
*1146 FILLER_23_128
*1147 FILLER_23_137
*1148 FILLER_23_152
*1149 FILLER_23_161
*1150 FILLER_23_167
*1151 FILLER_23_169
*1152 FILLER_23_179
*1153 FILLER_23_189
*1154 FILLER_23_201
*1155 FILLER_23_210
*1156 FILLER_23_221
*1157 FILLER_23_225
*1158 FILLER_23_233
*1159 FILLER_23_245
*1160 FILLER_23_257
*1161 FILLER_23_269
*1162 FILLER_23_27
*1163 FILLER_23_277
*1164 FILLER_23_281
*1165 FILLER_23_293
*1166 FILLER_23_3
*1167 FILLER_23_47
*1168 FILLER_23_55
*1169 FILLER_23_57
*1170 FILLER_23_76
*1171 FILLER_23_80
*1172 FILLER_24_103
*1173 FILLER_24_114
*1174 FILLER_24_120
*1175 FILLER_24_138
*1176 FILLER_24_141
*1177 FILLER_24_156
*1178 FILLER_24_164
*1179 FILLER_24_174
*1180 FILLER_24_181
*1181 FILLER_24_188
*1182 FILLER_24_197
*1183 FILLER_24_206
*1184 FILLER_24_21
*1185 FILLER_24_217
*1186 FILLER_24_229
*1187 FILLER_24_241
*1188 FILLER_24_249
*1189 FILLER_24_25
*1190 FILLER_24_253
*1191 FILLER_24_265
*1192 FILLER_24_277
*1193 FILLER_24_289
*1194 FILLER_24_29
*1195 FILLER_24_297
*1196 FILLER_24_3
*1197 FILLER_24_41
*1198 FILLER_24_45
*1199 FILLER_24_62
*1200 FILLER_24_68
*1201 FILLER_24_73
*1202 FILLER_24_82
*1203 FILLER_24_85
*1204 FILLER_24_95
*1205 FILLER_25_104
*1206 FILLER_25_113
*1207 FILLER_25_122
*1208 FILLER_25_142
*1209 FILLER_25_162
*1210 FILLER_25_169
*1211 FILLER_25_18
*1212 FILLER_25_182
*1213 FILLER_25_193
*1214 FILLER_25_200
*1215 FILLER_25_207
*1216 FILLER_25_213
*1217 FILLER_25_219
*1218 FILLER_25_223
*1219 FILLER_25_225
*1220 FILLER_25_237
*1221 FILLER_25_249
*1222 FILLER_25_261
*1223 FILLER_25_273
*1224 FILLER_25_279
*1225 FILLER_25_281
*1226 FILLER_25_293
*1227 FILLER_25_3
*1228 FILLER_25_38
*1229 FILLER_25_47
*1230 FILLER_25_55
*1231 FILLER_25_57
*1232 FILLER_25_63
*1233 FILLER_25_75
*1234 FILLER_25_83
*1235 FILLER_25_9
*1236 FILLER_25_90
*1237 FILLER_25_96
*1238 FILLER_26_106
*1239 FILLER_26_124
*1240 FILLER_26_136
*1241 FILLER_26_141
*1242 FILLER_26_154
*1243 FILLER_26_160
*1244 FILLER_26_170
*1245 FILLER_26_182
*1246 FILLER_26_192
*1247 FILLER_26_197
*1248 FILLER_26_202
*1249 FILLER_26_21
*1250 FILLER_26_214
*1251 FILLER_26_226
*1252 FILLER_26_238
*1253 FILLER_26_250
*1254 FILLER_26_253
*1255 FILLER_26_265
*1256 FILLER_26_27
*1257 FILLER_26_277
*1258 FILLER_26_289
*1259 FILLER_26_29
*1260 FILLER_26_297
*1261 FILLER_26_3
*1262 FILLER_26_37
*1263 FILLER_26_55
*1264 FILLER_26_61
*1265 FILLER_26_78
*1266 FILLER_26_85
*1267 FILLER_26_98
*1268 FILLER_27_100
*1269 FILLER_27_104
*1270 FILLER_27_110
*1271 FILLER_27_113
*1272 FILLER_27_126
*1273 FILLER_27_134
*1274 FILLER_27_145
*1275 FILLER_27_154
*1276 FILLER_27_166
*1277 FILLER_27_169
*1278 FILLER_27_180
*1279 FILLER_27_194
*1280 FILLER_27_203
*1281 FILLER_27_215
*1282 FILLER_27_222
*1283 FILLER_27_225
*1284 FILLER_27_237
*1285 FILLER_27_249
*1286 FILLER_27_261
*1287 FILLER_27_273
*1288 FILLER_27_279
*1289 FILLER_27_281
*1290 FILLER_27_293
*1291 FILLER_27_3
*1292 FILLER_27_32
*1293 FILLER_27_40
*1294 FILLER_27_53
*1295 FILLER_27_57
*1296 FILLER_27_69
*1297 FILLER_27_75
*1298 FILLER_27_79
*1299 FILLER_27_82
*1300 FILLER_27_9
*1301 FILLER_28_104
*1302 FILLER_28_108
*1303 FILLER_28_126
*1304 FILLER_28_137
*1305 FILLER_28_141
*1306 FILLER_28_145
*1307 FILLER_28_162
*1308 FILLER_28_166
*1309 FILLER_28_176
*1310 FILLER_28_187
*1311 FILLER_28_195
*1312 FILLER_28_197
*1313 FILLER_28_204
*1314 FILLER_28_21
*1315 FILLER_28_216
*1316 FILLER_28_228
*1317 FILLER_28_240
*1318 FILLER_28_25
*1319 FILLER_28_253
*1320 FILLER_28_265
*1321 FILLER_28_277
*1322 FILLER_28_289
*1323 FILLER_28_29
*1324 FILLER_28_297
*1325 FILLER_28_3
*1326 FILLER_28_39
*1327 FILLER_28_51
*1328 FILLER_28_69
*1329 FILLER_28_81
*1330 FILLER_28_85
*1331 FILLER_29_106
*1332 FILLER_29_113
*1333 FILLER_29_117
*1334 FILLER_29_126
*1335 FILLER_29_135
*1336 FILLER_29_145
*1337 FILLER_29_157
*1338 FILLER_29_166
*1339 FILLER_29_169
*1340 FILLER_29_179
*1341 FILLER_29_190
*1342 FILLER_29_202
*1343 FILLER_29_214
*1344 FILLER_29_222
*1345 FILLER_29_225
*1346 FILLER_29_237
*1347 FILLER_29_249
*1348 FILLER_29_261
*1349 FILLER_29_273
*1350 FILLER_29_279
*1351 FILLER_29_281
*1352 FILLER_29_293
*1353 FILLER_29_3
*1354 FILLER_29_32
*1355 FILLER_29_54
*1356 FILLER_29_57
*1357 FILLER_29_69
*1358 FILLER_29_77
*1359 FILLER_29_94
*1360 FILLER_2_103
*1361 FILLER_2_117
*1362 FILLER_2_125
*1363 FILLER_2_129
*1364 FILLER_2_138
*1365 FILLER_2_141
*1366 FILLER_2_15
*1367 FILLER_2_152
*1368 FILLER_2_159
*1369 FILLER_2_173
*1370 FILLER_2_185
*1371 FILLER_2_189
*1372 FILLER_2_194
*1373 FILLER_2_197
*1374 FILLER_2_203
*1375 FILLER_2_216
*1376 FILLER_2_225
*1377 FILLER_2_232
*1378 FILLER_2_240
*1379 FILLER_2_244
*1380 FILLER_2_253
*1381 FILLER_2_26
*1382 FILLER_2_265
*1383 FILLER_2_277
*1384 FILLER_2_289
*1385 FILLER_2_29
*1386 FILLER_2_297
*1387 FILLER_2_3
*1388 FILLER_2_34
*1389 FILLER_2_41
*1390 FILLER_2_49
*1391 FILLER_2_70
*1392 FILLER_2_76
*1393 FILLER_2_82
*1394 FILLER_2_85
*1395 FILLER_2_94
*1396 FILLER_30_11
*1397 FILLER_30_112
*1398 FILLER_30_116
*1399 FILLER_30_121
*1400 FILLER_30_129
*1401 FILLER_30_135
*1402 FILLER_30_139
*1403 FILLER_30_141
*1404 FILLER_30_15
*1405 FILLER_30_150
*1406 FILLER_30_163
*1407 FILLER_30_171
*1408 FILLER_30_184
*1409 FILLER_30_197
*1410 FILLER_30_216
*1411 FILLER_30_228
*1412 FILLER_30_24
*1413 FILLER_30_246
*1414 FILLER_30_253
*1415 FILLER_30_265
*1416 FILLER_30_277
*1417 FILLER_30_289
*1418 FILLER_30_29
*1419 FILLER_30_297
*1420 FILLER_30_3
*1421 FILLER_30_38
*1422 FILLER_30_62
*1423 FILLER_30_82
*1424 FILLER_30_85
*1425 FILLER_30_91
*1426 FILLER_30_95
*1427 FILLER_31_109
*1428 FILLER_31_113
*1429 FILLER_31_117
*1430 FILLER_31_126
*1431 FILLER_31_133
*1432 FILLER_31_145
*1433 FILLER_31_15
*1434 FILLER_31_157
*1435 FILLER_31_165
*1436 FILLER_31_169
*1437 FILLER_31_178
*1438 FILLER_31_190
*1439 FILLER_31_202
*1440 FILLER_31_214
*1441 FILLER_31_222
*1442 FILLER_31_225
*1443 FILLER_31_237
*1444 FILLER_31_249
*1445 FILLER_31_261
*1446 FILLER_31_273
*1447 FILLER_31_279
*1448 FILLER_31_281
*1449 FILLER_31_293
*1450 FILLER_31_3
*1451 FILLER_31_34
*1452 FILLER_31_54
*1453 FILLER_31_57
*1454 FILLER_31_63
*1455 FILLER_31_75
*1456 FILLER_31_79
*1457 FILLER_31_87
*1458 FILLER_31_91
*1459 FILLER_32_101
*1460 FILLER_32_107
*1461 FILLER_32_115
*1462 FILLER_32_124
*1463 FILLER_32_132
*1464 FILLER_32_138
*1465 FILLER_32_141
*1466 FILLER_32_149
*1467 FILLER_32_157
*1468 FILLER_32_170
*1469 FILLER_32_176
*1470 FILLER_32_188
*1471 FILLER_32_197
*1472 FILLER_32_204
*1473 FILLER_32_216
*1474 FILLER_32_228
*1475 FILLER_32_240
*1476 FILLER_32_253
*1477 FILLER_32_26
*1478 FILLER_32_265
*1479 FILLER_32_277
*1480 FILLER_32_289
*1481 FILLER_32_29
*1482 FILLER_32_297
*1483 FILLER_32_3
*1484 FILLER_32_47
*1485 FILLER_32_67
*1486 FILLER_32_79
*1487 FILLER_32_83
*1488 FILLER_32_85
*1489 FILLER_32_97
*1490 FILLER_33_102
*1491 FILLER_33_110
*1492 FILLER_33_113
*1493 FILLER_33_123
*1494 FILLER_33_127
*1495 FILLER_33_134
*1496 FILLER_33_146
*1497 FILLER_33_156
*1498 FILLER_33_166
*1499 FILLER_33_169
*1500 FILLER_33_177
*1501 FILLER_33_189
*1502 FILLER_33_199
*1503 FILLER_33_207
*1504 FILLER_33_21
*1505 FILLER_33_214
*1506 FILLER_33_222
*1507 FILLER_33_225
*1508 FILLER_33_237
*1509 FILLER_33_249
*1510 FILLER_33_261
*1511 FILLER_33_273
*1512 FILLER_33_279
*1513 FILLER_33_281
*1514 FILLER_33_29
*1515 FILLER_33_293
*1516 FILLER_33_3
*1517 FILLER_33_50
*1518 FILLER_33_57
*1519 FILLER_33_70
*1520 FILLER_33_74
*1521 FILLER_33_91
*1522 FILLER_34_104
*1523 FILLER_34_112
*1524 FILLER_34_120
*1525 FILLER_34_132
*1526 FILLER_34_138
*1527 FILLER_34_141
*1528 FILLER_34_161
*1529 FILLER_34_173
*1530 FILLER_34_187
*1531 FILLER_34_195
*1532 FILLER_34_197
*1533 FILLER_34_209
*1534 FILLER_34_22
*1535 FILLER_34_221
*1536 FILLER_34_233
*1537 FILLER_34_245
*1538 FILLER_34_251
*1539 FILLER_34_253
*1540 FILLER_34_265
*1541 FILLER_34_277
*1542 FILLER_34_289
*1543 FILLER_34_29
*1544 FILLER_34_297
*1545 FILLER_34_3
*1546 FILLER_34_48
*1547 FILLER_34_55
*1548 FILLER_34_75
*1549 FILLER_34_83
*1550 FILLER_34_85
*1551 FILLER_34_98
*1552 FILLER_35_110
*1553 FILLER_35_113
*1554 FILLER_35_117
*1555 FILLER_35_134
*1556 FILLER_35_148
*1557 FILLER_35_156
*1558 FILLER_35_166
*1559 FILLER_35_169
*1560 FILLER_35_181
*1561 FILLER_35_204
*1562 FILLER_35_216
*1563 FILLER_35_22
*1564 FILLER_35_225
*1565 FILLER_35_237
*1566 FILLER_35_249
*1567 FILLER_35_261
*1568 FILLER_35_273
*1569 FILLER_35_279
*1570 FILLER_35_281
*1571 FILLER_35_293
*1572 FILLER_35_3
*1573 FILLER_35_42
*1574 FILLER_35_51
*1575 FILLER_35_55
*1576 FILLER_35_57
*1577 FILLER_35_70
*1578 FILLER_35_74
*1579 FILLER_35_92
*1580 FILLER_35_98
*1581 FILLER_36_109
*1582 FILLER_36_117
*1583 FILLER_36_123
*1584 FILLER_36_138
*1585 FILLER_36_141
*1586 FILLER_36_150
*1587 FILLER_36_162
*1588 FILLER_36_178
*1589 FILLER_36_190
*1590 FILLER_36_197
*1591 FILLER_36_209
*1592 FILLER_36_21
*1593 FILLER_36_221
*1594 FILLER_36_233
*1595 FILLER_36_245
*1596 FILLER_36_251
*1597 FILLER_36_253
*1598 FILLER_36_265
*1599 FILLER_36_27
*1600 FILLER_36_277
*1601 FILLER_36_289
*1602 FILLER_36_29
*1603 FILLER_36_297
*1604 FILLER_36_3
*1605 FILLER_36_33
*1606 FILLER_36_50
*1607 FILLER_36_70
*1608 FILLER_36_82
*1609 FILLER_36_85
*1610 FILLER_36_91
*1611 FILLER_37_107
*1612 FILLER_37_111
*1613 FILLER_37_113
*1614 FILLER_37_133
*1615 FILLER_37_137
*1616 FILLER_37_143
*1617 FILLER_37_15
*1618 FILLER_37_151
*1619 FILLER_37_161
*1620 FILLER_37_167
*1621 FILLER_37_169
*1622 FILLER_37_181
*1623 FILLER_37_193
*1624 FILLER_37_205
*1625 FILLER_37_217
*1626 FILLER_37_223
*1627 FILLER_37_225
*1628 FILLER_37_237
*1629 FILLER_37_249
*1630 FILLER_37_261
*1631 FILLER_37_273
*1632 FILLER_37_279
*1633 FILLER_37_281
*1634 FILLER_37_293
*1635 FILLER_37_3
*1636 FILLER_37_35
*1637 FILLER_37_47
*1638 FILLER_37_55
*1639 FILLER_37_57
*1640 FILLER_37_65
*1641 FILLER_37_83
*1642 FILLER_37_95
*1643 FILLER_38_107
*1644 FILLER_38_113
*1645 FILLER_38_117
*1646 FILLER_38_124
*1647 FILLER_38_138
*1648 FILLER_38_141
*1649 FILLER_38_150
*1650 FILLER_38_168
*1651 FILLER_38_180
*1652 FILLER_38_192
*1653 FILLER_38_197
*1654 FILLER_38_209
*1655 FILLER_38_21
*1656 FILLER_38_221
*1657 FILLER_38_233
*1658 FILLER_38_245
*1659 FILLER_38_25
*1660 FILLER_38_251
*1661 FILLER_38_253
*1662 FILLER_38_265
*1663 FILLER_38_277
*1664 FILLER_38_289
*1665 FILLER_38_29
*1666 FILLER_38_297
*1667 FILLER_38_3
*1668 FILLER_38_37
*1669 FILLER_38_44
*1670 FILLER_38_56
*1671 FILLER_38_68
*1672 FILLER_38_72
*1673 FILLER_38_82
*1674 FILLER_38_85
*1675 FILLER_39_102
*1676 FILLER_39_110
*1677 FILLER_39_113
*1678 FILLER_39_119
*1679 FILLER_39_131
*1680 FILLER_39_137
*1681 FILLER_39_143
*1682 FILLER_39_151
*1683 FILLER_39_156
*1684 FILLER_39_169
*1685 FILLER_39_180
*1686 FILLER_39_192
*1687 FILLER_39_204
*1688 FILLER_39_216
*1689 FILLER_39_225
*1690 FILLER_39_23
*1691 FILLER_39_237
*1692 FILLER_39_249
*1693 FILLER_39_261
*1694 FILLER_39_273
*1695 FILLER_39_279
*1696 FILLER_39_281
*1697 FILLER_39_293
*1698 FILLER_39_3
*1699 FILLER_39_35
*1700 FILLER_39_46
*1701 FILLER_39_54
*1702 FILLER_39_57
*1703 FILLER_39_63
*1704 FILLER_39_82
*1705 FILLER_3_106
*1706 FILLER_3_113
*1707 FILLER_3_126
*1708 FILLER_3_137
*1709 FILLER_3_141
*1710 FILLER_3_147
*1711 FILLER_3_16
*1712 FILLER_3_163
*1713 FILLER_3_167
*1714 FILLER_3_169
*1715 FILLER_3_181
*1716 FILLER_3_188
*1717 FILLER_3_20
*1718 FILLER_3_200
*1719 FILLER_3_207
*1720 FILLER_3_216
*1721 FILLER_3_225
*1722 FILLER_3_237
*1723 FILLER_3_242
*1724 FILLER_3_254
*1725 FILLER_3_266
*1726 FILLER_3_278
*1727 FILLER_3_281
*1728 FILLER_3_293
*1729 FILLER_3_3
*1730 FILLER_3_37
*1731 FILLER_3_41
*1732 FILLER_3_45
*1733 FILLER_3_52
*1734 FILLER_3_57
*1735 FILLER_3_75
*1736 FILLER_3_8
*1737 FILLER_3_85
*1738 FILLER_40_10
*1739 FILLER_40_106
*1740 FILLER_40_115
*1741 FILLER_40_127
*1742 FILLER_40_132