*SPEF "ieee 1481-1999"
*DESIGN "dwisehart_top"
*DATE "11:11:11 Fri 11 11, 1111"
*VENDOR "OpenRCX"
*PROGRAM "Parallel Extraction"
*VERSION "1.0"
*DESIGN_FLOW "NAME_SCOPE LOCAL" "PIN_CAP NONE"
*DIVIDER /
*DELIMITER :
*BUS_DELIMITER []
*T_UNIT 1 NS
*C_UNIT 1 PF
*R_UNIT 1 OHM
*L_UNIT 1 HENRY

*NAME_MAP
*1 io_in[0]
*2 io_in[1]
*3 io_in[2]
*4 io_in[3]
*5 io_in[4]
*6 io_in[5]
*7 io_in[6]
*8 io_in[7]
*9 io_out[0]
*10 io_out[1]
*11 io_out[2]
*12 io_out[3]
*13 io_out[4]
*14 io_out[5]
*15 io_out[6]
*16 io_out[7]
*19 _0000_
*20 _0001_
*21 _0002_
*22 _0003_
*23 _0004_
*24 _0005_
*25 _0006_
*26 _0007_
*27 _0008_
*28 _0009_
*29 _0010_
*30 _0011_
*31 _0012_
*32 _0013_
*33 _0014_
*34 _0015_
*35 _0016_
*36 _0017_
*37 _0018_
*38 _0019_
*39 _0020_
*40 _0021_
*41 _0022_
*42 _0023_
*43 _0024_
*44 _0025_
*45 _0026_
*46 _0027_
*47 _0028_
*48 _0029_
*49 _0030_
*50 _0031_
*51 _0032_
*52 _0033_
*53 _0034_
*54 _0035_
*55 _0036_
*56 _0037_
*57 _0038_
*58 _0039_
*59 _0040_
*60 _0041_
*61 _0042_
*62 _0043_
*63 _0044_
*64 _0045_
*65 _0046_
*66 _0047_
*67 _0048_
*68 _0049_
*69 _0050_
*70 _0051_
*71 _0052_
*72 _0053_
*73 _0054_
*74 _0055_
*75 _0056_
*76 _0057_
*77 _0058_
*78 _0059_
*79 _0060_
*80 _0061_
*81 _0062_
*82 _0063_
*83 _0064_
*84 _0065_
*85 _0066_
*86 _0067_
*87 _0068_
*88 _0069_
*89 _0070_
*90 _0071_
*91 _0072_
*92 _0073_
*93 _0074_
*94 _0075_
*95 _0076_
*96 _0077_
*97 _0078_
*98 _0079_
*99 _0080_
*100 _0081_
*101 _0082_
*102 _0083_
*103 _0084_
*104 _0085_
*105 _0086_
*106 _0087_
*107 _0088_
*108 _0089_
*109 _0090_
*110 _0091_
*111 _0092_
*112 _0093_
*113 _0094_
*114 _0095_
*115 _0096_
*116 _0097_
*117 _0098_
*118 _0099_
*119 _0100_
*120 _0101_
*121 _0102_
*122 _0103_
*123 _0104_
*124 _0105_
*125 _0106_
*126 _0107_
*127 _0108_
*128 _0109_
*129 _0110_
*130 _0111_
*131 _0112_
*132 _0113_
*133 _0114_
*134 _0115_
*135 _0116_
*136 _0117_
*137 _0118_
*138 _0119_
*139 _0120_
*140 _0121_
*141 _0122_
*142 _0123_
*143 _0124_
*144 _0125_
*145 _0126_
*146 _0127_
*147 _0128_
*148 _0129_
*149 _0130_
*150 _0131_
*151 _0132_
*152 _0133_
*153 _0134_
*154 _0135_
*155 _0136_
*156 _0137_
*157 _0138_
*158 _0139_
*159 _0140_
*160 _0141_
*161 _0142_
*162 _0143_
*163 _0144_
*164 _0145_
*165 _0146_
*166 _0147_
*167 _0148_
*168 _0149_
*169 _0150_
*170 _0151_
*171 _0152_
*172 _0153_
*173 _0154_
*174 _0155_
*175 _0156_
*176 _0157_
*177 _0158_
*178 _0159_
*179 _0160_
*180 _0161_
*181 _0162_
*182 _0163_
*183 _0164_
*184 _0165_
*185 _0166_
*186 _0167_
*187 _0168_
*188 _0169_
*189 _0170_
*190 _0171_
*191 _0172_
*192 _0173_
*193 _0174_
*194 _0175_
*195 _0176_
*196 _0177_
*197 _0178_
*198 _0179_
*199 _0180_
*200 _0181_
*201 _0182_
*202 _0183_
*203 _0184_
*204 _0185_
*205 _0186_
*206 _0187_
*207 _0188_
*208 _0189_
*209 _0190_
*210 _0191_
*211 _0192_
*212 _0193_
*213 _0194_
*214 _0195_
*215 _0196_
*216 _0197_
*217 _0198_
*218 _0199_
*219 _0200_
*220 _0201_
*221 _0202_
*222 _0203_
*223 _0204_
*224 _0205_
*225 _0206_
*226 _0207_
*227 _0208_
*228 _0209_
*229 _0210_
*230 _0211_
*231 _0212_
*232 _0213_
*233 _0214_
*234 _0215_
*235 _0216_
*236 _0217_
*237 _0218_
*238 _0219_
*239 _0220_
*240 _0221_
*241 _0222_
*242 _0223_
*243 _0224_
*244 _0225_
*245 _0226_
*246 _0227_
*247 _0228_
*248 _0229_
*249 _0230_
*250 _0231_
*251 _0232_
*252 _0233_
*253 _0234_
*254 _0235_
*255 _0236_
*256 _0237_
*257 _0238_
*258 _0239_
*259 _0240_
*260 _0241_
*261 _0242_
*262 _0243_
*263 _0244_
*264 _0245_
*265 _0246_
*266 _0247_
*267 _0248_
*268 _0249_
*269 _0250_
*270 _0251_
*271 _0252_
*272 _0253_
*273 _0254_
*274 _0255_
*275 _0256_
*276 _0257_
*277 _0258_
*278 _0259_
*279 _0260_
*280 _0261_
*281 _0262_
*282 _0263_
*283 _0264_
*284 _0265_
*285 _0266_
*286 _0267_
*287 _0268_
*288 _0269_
*289 _0270_
*290 _0271_
*291 _0272_
*292 _0273_
*293 _0274_
*294 _0275_
*295 _0276_
*296 _0277_
*297 _0278_
*298 _0279_
*299 _0280_
*300 _0281_
*301 _0282_
*302 _0283_
*303 _0284_
*304 _0285_
*305 _0286_
*306 _0287_
*307 _0288_
*308 _0289_
*309 _0290_
*310 _0291_
*311 _0292_
*312 _0293_
*313 _0294_
*314 _0295_
*315 _0296_
*316 _0297_
*317 _0298_
*318 _0299_
*319 _0300_
*320 _0301_
*321 _0302_
*322 _0303_
*323 _0304_
*324 _0305_
*325 _0306_
*326 _0307_
*327 _0308_
*328 _0309_
*329 _0310_
*330 _0311_
*331 _0312_
*332 _0313_
*333 _0314_
*334 _0315_
*335 _0316_
*336 _0317_
*337 _0318_
*338 _0319_
*339 _0320_
*340 _0321_
*341 _0322_
*342 _0323_
*343 _0324_
*344 _0325_
*345 _0326_
*346 _0327_
*347 _0328_
*348 _0329_
*349 _0330_
*350 _0331_
*351 _0332_
*352 _0333_
*353 _0334_
*354 _0335_
*355 _0336_
*356 _0337_
*357 _0338_
*358 _0339_
*359 _0340_
*360 _0341_
*361 _0342_
*362 _0343_
*363 _0344_
*364 _0345_
*365 _0346_
*366 _0347_
*367 _0348_
*368 _0349_
*369 _0350_
*370 _0351_
*371 _0352_
*372 _0353_
*373 _0354_
*374 _0355_
*375 _0356_
*376 _0357_
*377 _0358_
*378 _0359_
*379 _0360_
*380 _0361_
*381 _0362_
*382 _0363_
*383 _0364_
*384 _0365_
*385 _0366_
*386 _0367_
*387 _0368_
*388 _0369_
*389 _0370_
*390 _0371_
*391 _0372_
*392 _0373_
*393 _0374_
*394 _0375_
*395 _0376_
*396 _0377_
*397 _0378_
*398 _0379_
*399 _0380_
*400 _0381_
*401 _0382_
*402 _0383_
*403 _0384_
*404 _0385_
*405 _0386_
*406 _0387_
*407 _0388_
*408 _0389_
*409 _0390_
*410 _0391_
*411 _0392_
*412 _0393_
*413 _0394_
*414 _0395_
*415 _0396_
*416 _0397_
*417 _0398_
*418 _0399_
*419 _0400_
*420 _0401_
*421 _0402_
*422 _0403_
*423 _0404_
*424 _0405_
*425 _0406_
*426 _0407_
*427 _0408_
*428 _0409_
*429 _0410_
*430 _0411_
*431 _0412_
*432 _0413_
*433 _0414_
*434 _0415_
*435 _0416_
*436 _0417_
*437 _0418_
*438 _0419_
*439 _0420_
*440 _0421_
*441 _0422_
*442 _0423_
*443 _0424_
*444 _0425_
*445 _0426_
*446 _0427_
*447 _0428_
*448 _0429_
*449 _0430_
*450 _0431_
*451 _0432_
*452 _0433_
*453 _0434_
*454 _0435_
*455 _0436_
*456 _0437_
*457 _0438_
*458 _0439_
*459 _0440_
*460 _0441_
*461 _0442_
*462 _0443_
*463 _0444_
*464 _0445_
*465 _0446_
*466 _0447_
*467 _0448_
*468 _0449_
*469 _0450_
*470 _0451_
*471 _0452_
*472 _0453_
*473 _0454_
*474 _0455_
*475 _0456_
*476 _0457_
*477 _0458_
*478 _0459_
*479 _0460_
*480 _0461_
*481 _0462_
*482 _0463_
*483 _0464_
*484 _0465_
*485 _0466_
*486 _0467_
*487 _0468_
*488 _0469_
*489 _0470_
*490 _0471_
*491 _0472_
*492 _0473_
*493 _0474_
*494 _0475_
*495 _0476_
*496 _0477_
*497 _0478_
*498 _0479_
*499 _0480_
*500 _0481_
*501 _0482_
*502 _0483_
*503 _0484_
*504 _0485_
*505 _0486_
*506 _0487_
*507 _0488_
*508 _0489_
*509 _0490_
*510 _0491_
*511 _0492_
*512 _0493_
*513 _0494_
*514 _0495_
*515 _0496_
*516 _0497_
*517 _0498_
*518 _0499_
*519 _0500_
*520 _0501_
*521 _0502_
*522 _0503_
*523 _0504_
*524 _0505_
*525 _0506_
*526 _0507_
*527 _0508_
*528 _0509_
*529 _0510_
*530 _0511_
*531 _0512_
*532 _0513_
*533 _0514_
*534 _0515_
*535 _0516_
*536 _0517_
*537 _0518_
*538 _0519_
*539 clknet_0_io_in[0]
*540 clknet_4_0_0_io_in[0]
*541 clknet_4_10_0_io_in[0]
*542 clknet_4_11_0_io_in[0]
*543 clknet_4_12_0_io_in[0]
*544 clknet_4_13_0_io_in[0]
*545 clknet_4_14_0_io_in[0]
*546 clknet_4_15_0_io_in[0]
*547 clknet_4_1_0_io_in[0]
*548 clknet_4_2_0_io_in[0]
*549 clknet_4_3_0_io_in[0]
*550 clknet_4_4_0_io_in[0]
*551 clknet_4_5_0_io_in[0]
*552 clknet_4_6_0_io_in[0]
*553 clknet_4_7_0_io_in[0]
*554 clknet_4_8_0_io_in[0]
*555 clknet_4_9_0_io_in[0]
*556 m_grey\.bil\[0\]
*557 m_grey\.bil\[1\]
*558 m_grey\.bil\[2\]
*559 m_grey\.bil\[3\]
*560 m_grey\.bil\[4\]
*561 m_grey\.hunB\[0\]
*562 m_grey\.hunB\[1\]
*563 m_grey\.hunB\[2\]
*564 m_grey\.hunB\[3\]
*565 m_grey\.hunB\[4\]
*566 m_grey\.hunM\[0\]
*567 m_grey\.hunM\[1\]
*568 m_grey\.hunM\[2\]
*569 m_grey\.hunM\[3\]
*570 m_grey\.hunM\[4\]
*571 m_grey\.hunT\[0\]
*572 m_grey\.hunT\[1\]
*573 m_grey\.hunT\[2\]
*574 m_grey\.hunT\[3\]
*575 m_grey\.hunT\[4\]
*576 m_grey\.hund\[0\]
*577 m_grey\.hund\[1\]
*578 m_grey\.hund\[2\]
*579 m_grey\.hund\[3\]
*580 m_grey\.hund\[4\]
*581 m_grey\.mil\[0\]
*582 m_grey\.mil\[1\]
*583 m_grey\.mil\[2\]
*584 m_grey\.mil\[3\]
*585 m_grey\.mil\[4\]
*586 m_grey\.ones\[0\]
*587 m_grey\.ones\[1\]
*588 m_grey\.ones\[2\]
*589 m_grey\.ones\[3\]
*590 m_grey\.ones\[4\]
*591 m_grey\.r_clk
*592 m_grey\.r_tenB\[0\]
*593 m_grey\.r_tenB\[1\]
*594 m_grey\.r_tenB\[2\]
*595 m_grey\.r_tenB\[3\]
*596 m_grey\.r_tenB\[4\]
*597 m_grey\.r_tenM\[0\]
*598 m_grey\.r_tenM\[1\]
*599 m_grey\.r_tenM\[2\]
*600 m_grey\.r_tenM\[3\]
*601 m_grey\.r_tenM\[4\]
*602 m_grey\.r_tenT\[0\]
*603 m_grey\.r_tenT\[1\]
*604 m_grey\.r_tenT\[2\]
*605 m_grey\.r_tenT\[3\]
*606 m_grey\.r_tenT\[4\]
*607 m_grey\.r_tens\[0\]
*608 m_grey\.r_tens\[1\]
*609 m_grey\.r_tens\[2\]
*610 m_grey\.r_tens\[3\]
*611 m_grey\.r_tens\[4\]
*612 m_grey\.r_thou\[0\]
*613 m_grey\.r_thou\[1\]
*614 m_grey\.r_thou\[2\]
*615 m_grey\.r_thou\[3\]
*616 m_grey\.r_thou\[4\]
*617 net1
*618 net2
*619 net3
*620 net4
*621 net5
*622 net6
*623 net7
*624 ANTENNA_1
*625 ANTENNA_10
*626 ANTENNA_11
*627 ANTENNA_12
*628 ANTENNA_13
*629 ANTENNA_14
*630 ANTENNA_15
*631 ANTENNA_16
*632 ANTENNA_17
*633 ANTENNA_18
*634 ANTENNA_19
*635 ANTENNA_2
*636 ANTENNA_20
*637 ANTENNA_21
*638 ANTENNA_22
*639 ANTENNA_23
*640 ANTENNA_24
*641 ANTENNA_25
*642 ANTENNA_26
*643 ANTENNA_3
*644 ANTENNA_4
*645 ANTENNA_5
*646 ANTENNA_6
*647 ANTENNA_7
*648 ANTENNA_8
*649 ANTENNA_9
*650 FILLER_0_110
*651 FILLER_0_113
*652 FILLER_0_131
*653 FILLER_0_135
*654 FILLER_0_139
*655 FILLER_0_141
*656 FILLER_0_159
*657 FILLER_0_167
*658 FILLER_0_169
*659 FILLER_0_181
*660 FILLER_0_193
*661 FILLER_0_197
*662 FILLER_0_203
*663 FILLER_0_209
*664 FILLER_0_221
*665 FILLER_0_225
*666 FILLER_0_237
*667 FILLER_0_249
*668 FILLER_0_253
*669 FILLER_0_26
*670 FILLER_0_265
*671 FILLER_0_277
*672 FILLER_0_281
*673 FILLER_0_29
*674 FILLER_0_293
*675 FILLER_0_3
*676 FILLER_0_33
*677 FILLER_0_36
*678 FILLER_0_54
*679 FILLER_0_57
*680 FILLER_0_8
*681 FILLER_0_81
*682 FILLER_0_85
*683 FILLER_0_93
*684 FILLER_10_102
*685 FILLER_10_121
*686 FILLER_10_125
*687 FILLER_10_133
*688 FILLER_10_139
*689 FILLER_10_141
*690 FILLER_10_147
*691 FILLER_10_152
*692 FILLER_10_156
*693 FILLER_10_161
*694 FILLER_10_173
*695 FILLER_10_185
*696 FILLER_10_193
*697 FILLER_10_197
*698 FILLER_10_209
*699 FILLER_10_217
*700 FILLER_10_224
*701 FILLER_10_235
*702 FILLER_10_243
*703 FILLER_10_251
*704 FILLER_10_253
*705 FILLER_10_26
*706 FILLER_10_265
*707 FILLER_10_277
*708 FILLER_10_289
*709 FILLER_10_29
*710 FILLER_10_297
*711 FILLER_10_3
*712 FILLER_10_47
*713 FILLER_10_72
*714 FILLER_10_85
*715 FILLER_10_9
*716 FILLER_10_97
*717 FILLER_11_109
*718 FILLER_11_113
*719 FILLER_11_126
*720 FILLER_11_134
*721 FILLER_11_138
*722 FILLER_11_142
*723 FILLER_11_154
*724 FILLER_11_160
*725 FILLER_11_166
*726 FILLER_11_169
*727 FILLER_11_180
*728 FILLER_11_192
*729 FILLER_11_196
*730 FILLER_11_200
*731 FILLER_11_213
*732 FILLER_11_217
*733 FILLER_11_22
*734 FILLER_11_222
*735 FILLER_11_225
*736 FILLER_11_243
*737 FILLER_11_251
*738 FILLER_11_257
*739 FILLER_11_269
*740 FILLER_11_273
*741 FILLER_11_279
*742 FILLER_11_281
*743 FILLER_11_294
*744 FILLER_11_298
*745 FILLER_11_3
*746 FILLER_11_34
*747 FILLER_11_54
*748 FILLER_11_57
*749 FILLER_11_65
*750 FILLER_11_82
*751 FILLER_11_97
*752 FILLER_12_114
*753 FILLER_12_134
*754 FILLER_12_141
*755 FILLER_12_153
*756 FILLER_12_167
*757 FILLER_12_179
*758 FILLER_12_185
*759 FILLER_12_189
*760 FILLER_12_195
*761 FILLER_12_197
*762 FILLER_12_207
*763 FILLER_12_21
*764 FILLER_12_219
*765 FILLER_12_224
*766 FILLER_12_236
*767 FILLER_12_243
*768 FILLER_12_251
*769 FILLER_12_253
*770 FILLER_12_265
*771 FILLER_12_27
*772 FILLER_12_277
*773 FILLER_12_289
*774 FILLER_12_29
*775 FILLER_12_297
*776 FILLER_12_3
*777 FILLER_12_42
*778 FILLER_12_63
*779 FILLER_12_75
*780 FILLER_12_83
*781 FILLER_12_85
*782 FILLER_12_97
*783 FILLER_13_108
*784 FILLER_13_113
*785 FILLER_13_131
*786 FILLER_13_143
*787 FILLER_13_155
*788 FILLER_13_167
*789 FILLER_13_169
*790 FILLER_13_178
*791 FILLER_13_190
*792 FILLER_13_196
*793 FILLER_13_207
*794 FILLER_13_21
*795 FILLER_13_217
*796 FILLER_13_223
*797 FILLER_13_225
*798 FILLER_13_244
*799 FILLER_13_259
*800 FILLER_13_27
*801 FILLER_13_271
*802 FILLER_13_279
*803 FILLER_13_281
*804 FILLER_13_291
*805 FILLER_13_3
*806 FILLER_13_46
*807 FILLER_13_54
*808 FILLER_13_57
*809 FILLER_13_65
*810 FILLER_13_68
*811 FILLER_13_87
*812 FILLER_14_116
*813 FILLER_14_124
*814 FILLER_14_135
*815 FILLER_14_139
*816 FILLER_14_141
*817 FILLER_14_153
*818 FILLER_14_165
*819 FILLER_14_169
*820 FILLER_14_173
*821 FILLER_14_193
*822 FILLER_14_197
*823 FILLER_14_209
*824 FILLER_14_213
*825 FILLER_14_221
*826 FILLER_14_233
*827 FILLER_14_245
*828 FILLER_14_251
*829 FILLER_14_253
*830 FILLER_14_26
*831 FILLER_14_265
*832 FILLER_14_272
*833 FILLER_14_284
*834 FILLER_14_29
*835 FILLER_14_296
*836 FILLER_14_3
*837 FILLER_14_41
*838 FILLER_14_61
*839 FILLER_14_82
*840 FILLER_14_85
*841 FILLER_14_9
*842 FILLER_14_97
*843 FILLER_15_103
*844 FILLER_15_111
*845 FILLER_15_113
*846 FILLER_15_131
*847 FILLER_15_142
*848 FILLER_15_149
*849 FILLER_15_161
*850 FILLER_15_167
*851 FILLER_15_169
*852 FILLER_15_17
*853 FILLER_15_177
*854 FILLER_15_183
*855 FILLER_15_195
*856 FILLER_15_207
*857 FILLER_15_219
*858 FILLER_15_223
*859 FILLER_15_225
*860 FILLER_15_236
*861 FILLER_15_243
*862 FILLER_15_255
*863 FILLER_15_267
*864 FILLER_15_278
*865 FILLER_15_281
*866 FILLER_15_293
*867 FILLER_15_3
*868 FILLER_15_34
*869 FILLER_15_54
*870 FILLER_15_57
*871 FILLER_15_69
*872 FILLER_15_9
*873 FILLER_15_91
*874 FILLER_16_114
*875 FILLER_16_134
*876 FILLER_16_141
*877 FILLER_16_146
*878 FILLER_16_150
*879 FILLER_16_156
*880 FILLER_16_168
*881 FILLER_16_172
*882 FILLER_16_181
*883 FILLER_16_193
*884 FILLER_16_197
*885 FILLER_16_209
*886 FILLER_16_222
*887 FILLER_16_230
*888 FILLER_16_240
*889 FILLER_16_253
*890 FILLER_16_26
*891 FILLER_16_265
*892 FILLER_16_277
*893 FILLER_16_289
*894 FILLER_16_29
*895 FILLER_16_297
*896 FILLER_16_3
*897 FILLER_16_41
*898 FILLER_16_61
*899 FILLER_16_82
*900 FILLER_16_85
*901 FILLER_16_9
*902 FILLER_17_107
*903 FILLER_17_111
*904 FILLER_17_113
*905 FILLER_17_126
*906 FILLER_17_139
*907 FILLER_17_143
*908 FILLER_17_147
*909 FILLER_17_153
*910 FILLER_17_156
*911 FILLER_17_166
*912 FILLER_17_169
*913 FILLER_17_181
*914 FILLER_17_186
*915 FILLER_17_198
*916 FILLER_17_21
*917 FILLER_17_218
*918 FILLER_17_225
*919 FILLER_17_231
*920 FILLER_17_249
*921 FILLER_17_261
*922 FILLER_17_273
*923 FILLER_17_279
*924 FILLER_17_281
*925 FILLER_17_293
*926 FILLER_17_3
*927 FILLER_17_45
*928 FILLER_17_53
*929 FILLER_17_57
*930 FILLER_17_74
*931 FILLER_17_95
*932 FILLER_18_111
*933 FILLER_18_131
*934 FILLER_18_139
*935 FILLER_18_141
*936 FILLER_18_151
*937 FILLER_18_160
*938 FILLER_18_170
*939 FILLER_18_186
*940 FILLER_18_194
*941 FILLER_18_197
*942 FILLER_18_201
*943 FILLER_18_207
*944 FILLER_18_219
*945 FILLER_18_227
*946 FILLER_18_231
*947 FILLER_18_243
*948 FILLER_18_251
*949 FILLER_18_253
*950 FILLER_18_26
*951 FILLER_18_265
*952 FILLER_18_277
*953 FILLER_18_289
*954 FILLER_18_29
*955 FILLER_18_297
*956 FILLER_18_3
*957 FILLER_18_37
*958 FILLER_18_56
*959 FILLER_18_77
*960 FILLER_18_83
*961 FILLER_18_85
*962 FILLER_18_9
*963 FILLER_18_93
*964 FILLER_19_109
*965 FILLER_19_113
*966 FILLER_19_125
*967 FILLER_19_137
*968 FILLER_19_146
*969 FILLER_19_158
*970 FILLER_19_166
*971 FILLER_19_169
*972 FILLER_19_179
*973 FILLER_19_191
*974 FILLER_19_206
*975 FILLER_19_218
*976 FILLER_19_22
*977 FILLER_19_225
*978 FILLER_19_233
*979 FILLER_19_239
*980 FILLER_19_247
*981 FILLER_19_259
*982 FILLER_19_271
*983 FILLER_19_279
*984 FILLER_19_281
*985 FILLER_19_293
*986 FILLER_19_3
*987 FILLER_19_44
*988 FILLER_19_57
*989 FILLER_19_69
*990 FILLER_19_87
*991 FILLER_19_91
*992 FILLER_1_110
*993 FILLER_1_129
*994 FILLER_1_133
*995 FILLER_1_15
*996 FILLER_1_151
*997 FILLER_1_159
*998 FILLER_1_166
*999 FILLER_1_169
*1000 FILLER_1_176
*1001 FILLER_1_188
*1002 FILLER_1_200
*1003 FILLER_1_214
*1004 FILLER_1_222
*1005 FILLER_1_225
*1006 FILLER_1_230
*1007 FILLER_1_239
*1008 FILLER_1_246
*1009 FILLER_1_252
*1010 FILLER_1_258
*1011 FILLER_1_265
*1012 FILLER_1_273
*1013 FILLER_1_279
*1014 FILLER_1_281
*1015 FILLER_1_293
*1016 FILLER_1_3
*1017 FILLER_1_33
*1018 FILLER_1_53
*1019 FILLER_1_57
*1020 FILLER_1_65
*1021 FILLER_1_85
*1022 FILLER_1_93
*1023 FILLER_20_111
*1024 FILLER_20_119
*1025 FILLER_20_129
*1026 FILLER_20_133
*1027 FILLER_20_138
*1028 FILLER_20_141
*1029 FILLER_20_150
*1030 FILLER_20_158
*1031 FILLER_20_163
*1032 FILLER_20_171
*1033 FILLER_20_180
*1034 FILLER_20_189
*1035 FILLER_20_195
*1036 FILLER_20_197
*1037 FILLER_20_209
*1038 FILLER_20_21
*1039 FILLER_20_216
*1040 FILLER_20_225
*1041 FILLER_20_250
*1042 FILLER_20_253
*1043 FILLER_20_262
*1044 FILLER_20_27
*1045 FILLER_20_274
*1046 FILLER_20_286
*1047 FILLER_20_29
*1048 FILLER_20_298
*1049 FILLER_20_3
*1050 FILLER_20_49
*1051 FILLER_20_53
*1052 FILLER_20_71
*1053 FILLER_20_83
*1054 FILLER_20_85
*1055 FILLER_20_93
*1056 FILLER_21_105
*1057 FILLER_21_111
*1058 FILLER_21_113
*1059 FILLER_21_125
*1060 FILLER_21_133
*1061 FILLER_21_146
*1062 FILLER_21_15
*1063 FILLER_21_152
*1064 FILLER_21_160
*1065 FILLER_21_169
*1066 FILLER_21_179
*1067 FILLER_21_185
*1068 FILLER_21_194
*1069 FILLER_21_207
*1070 FILLER_21_219
*1071 FILLER_21_223
*1072 FILLER_21_225
*1073 FILLER_21_237
*1074 FILLER_21_247
*1075 FILLER_21_261
*1076 FILLER_21_273
*1077 FILLER_21_279
*1078 FILLER_21_281
*1079 FILLER_21_286
*1080 FILLER_21_298
*1081 FILLER_21_3
*1082 FILLER_21_32
*1083 FILLER_21_36
*1084 FILLER_21_54
*1085 FILLER_21_57
*1086 FILLER_21_70
*1087 FILLER_21_76
*1088 FILLER_21_9
*1089 FILLER_21_93
*1090 FILLER_22_103
*1091 FILLER_22_123
*1092 FILLER_22_132
*1093 FILLER_22_141
*1094 FILLER_22_150
*1095 FILLER_22_154
*1096 FILLER_22_163
*1097 FILLER_22_174
*1098 FILLER_22_189
*1099 FILLER_22_195
*1100 FILLER_22_197
*1101 FILLER_22_202
*1102 FILLER_22_206
*1103 FILLER_22_215
*1104 FILLER_22_227
*1105 FILLER_22_240
*1106 FILLER_22_253
*1107 FILLER_22_26
*1108 FILLER_22_263
*1109 FILLER_22_275
*1110 FILLER_22_287
*1111 FILLER_22_29
*1112 FILLER_22_3
*1113 FILLER_22_41
*1114 FILLER_22_61
*1115 FILLER_22_65
*1116 FILLER_22_82
*1117 FILLER_22_85
*1118 FILLER_23_110
*1119 FILLER_23_113
*1120 FILLER_23_124
*1121 FILLER_23_135
*1122 FILLER_23_147
*1123 FILLER_23_155
*1124 FILLER_23_161
*1125 FILLER_23_167
*1126 FILLER_23_169
*1127 FILLER_23_18
*1128 FILLER_23_183
*1129 FILLER_23_195
*1130 FILLER_23_204
*1131 FILLER_23_216
*1132 FILLER_23_225
*1133 FILLER_23_240
*1134 FILLER_23_252
*1135 FILLER_23_264
*1136 FILLER_23_276
*1137 FILLER_23_281
*1138 FILLER_23_293
*1139 FILLER_23_3
*1140 FILLER_23_39
*1141 FILLER_23_54
*1142 FILLER_23_57
*1143 FILLER_23_78
*1144 FILLER_23_90
*1145 FILLER_24_113
*1146 FILLER_24_119
*1147 FILLER_24_127
*1148 FILLER_24_134
*1149 FILLER_24_141
*1150 FILLER_24_147
*1151 FILLER_24_155
*1152 FILLER_24_165
*1153 FILLER_24_177
*1154 FILLER_24_183
*1155 FILLER_24_194
*1156 FILLER_24_197
*1157 FILLER_24_205
*1158 FILLER_24_211
*1159 FILLER_24_223
*1160 FILLER_24_235
*1161 FILLER_24_247
*1162 FILLER_24_251
*1163 FILLER_24_253
*1164 FILLER_24_26
*1165 FILLER_24_265
*1166 FILLER_24_277
*1167 FILLER_24_289
*1168 FILLER_24_29
*1169 FILLER_24_297
*1170 FILLER_24_3
*1171 FILLER_24_48
*1172 FILLER_24_60
*1173 FILLER_24_64
*1174 FILLER_24_8
*1175 FILLER_24_81
*1176 FILLER_24_85
*1177 FILLER_25_110
*1178 FILLER_25_113
*1179 FILLER_25_129
*1180 FILLER_25_142
*1181 FILLER_25_153
*1182 FILLER_25_165
*1183 FILLER_25_169
*1184 FILLER_25_180
*1185 FILLER_25_192
*1186 FILLER_25_199
*1187 FILLER_25_207
*1188 FILLER_25_21
*1189 FILLER_25_218
*1190 FILLER_25_225
*1191 FILLER_25_237
*1192 FILLER_25_249
*1193 FILLER_25_261
*1194 FILLER_25_273
*1195 FILLER_25_279
*1196 FILLER_25_281
*1197 FILLER_25_293
*1198 FILLER_25_3
*1199 FILLER_25_33
*1200 FILLER_25_37
*1201 FILLER_25_54
*1202 FILLER_25_57
*1203 FILLER_25_69
*1204 FILLER_25_81
*1205 FILLER_26_108
*1206 FILLER_26_120
*1207 FILLER_26_132
*1208 FILLER_26_141
*1209 FILLER_26_15
*1210 FILLER_26_151
*1211 FILLER_26_162
*1212 FILLER_26_174
*1213 FILLER_26_186
*1214 FILLER_26_194
*1215 FILLER_26_197
*1216 FILLER_26_207
*1217 FILLER_26_225
*1218 FILLER_26_236
*1219 FILLER_26_243
*1220 FILLER_26_251
*1221 FILLER_26_253
*1222 FILLER_26_265
*1223 FILLER_26_27
*1224 FILLER_26_277
*1225 FILLER_26_289
*1226 FILLER_26_29
*1227 FILLER_26_297
*1228 FILLER_26_3
*1229 FILLER_26_42
*1230 FILLER_26_62
*1231 FILLER_26_82
*1232 FILLER_26_85
*1233 FILLER_27_107
*1234 FILLER_27_111
*1235 FILLER_27_113
*1236 FILLER_27_125
*1237 FILLER_27_133
*1238 FILLER_27_139
*1239 FILLER_27_144
*1240 FILLER_27_151
*1241 FILLER_27_163
*1242 FILLER_27_167
*1243 FILLER_27_169
*1244 FILLER_27_181
*1245 FILLER_27_194
*1246 FILLER_27_205
*1247 FILLER_27_21
*1248 FILLER_27_214
*1249 FILLER_27_222
*1250 FILLER_27_225
*1251 FILLER_27_231
*1252 FILLER_27_238
*1253 FILLER_27_247
*1254 FILLER_27_259
*1255 FILLER_27_271
*1256 FILLER_27_279
*1257 FILLER_27_281
*1258 FILLER_27_293
*1259 FILLER_27_3
*1260 FILLER_27_43
*1261 FILLER_27_50
*1262 FILLER_27_57
*1263 FILLER_27_75
*1264 FILLER_27_95
*1265 FILLER_28_103
*1266 FILLER_28_115
*1267 FILLER_28_129
*1268 FILLER_28_137
*1269 FILLER_28_141
*1270 FILLER_28_147
*1271 FILLER_28_156
*1272 FILLER_28_163
*1273 FILLER_28_169
*1274 FILLER_28_175
*1275 FILLER_28_183
*1276 FILLER_28_187
*1277 FILLER_28_194
*1278 FILLER_28_197
*1279 FILLER_28_203
*1280 FILLER_28_210
*1281 FILLER_28_223
*1282 FILLER_28_242
*1283 FILLER_28_250
*1284 FILLER_28_253
*1285 FILLER_28_26
*1286 FILLER_28_265
*1287 FILLER_28_277
*1288 FILLER_28_289
*1289 FILLER_28_29
*1290 FILLER_28_297
*1291 FILLER_28_3
*1292 FILLER_28_37
*1293 FILLER_28_56
*1294 FILLER_28_64
*1295 FILLER_28_7
*1296 FILLER_28_82
*1297 FILLER_28_85
*1298 FILLER_29_111
*1299 FILLER_29_113
*1300 FILLER_29_117
*1301 FILLER_29_126
*1302 FILLER_29_141
*1303 FILLER_29_156
*1304 FILLER_29_169
*1305 FILLER_29_179
*1306 FILLER_29_191
*1307 FILLER_29_199
*1308 FILLER_29_205
*1309 FILLER_29_217
*1310 FILLER_29_22
*1311 FILLER_29_223
*1312 FILLER_29_225
*1313 FILLER_29_232
*1314 FILLER_29_244
*1315 FILLER_29_256
*1316 FILLER_29_268
*1317 FILLER_29_28
*1318 FILLER_29_281
*1319 FILLER_29_293
*1320 FILLER_29_3
*1321 FILLER_29_45
*1322 FILLER_29_54
*1323 FILLER_29_57
*1324 FILLER_29_64
*1325 FILLER_29_70
*1326 FILLER_29_87
*1327 FILLER_29_99
*1328 FILLER_2_120
*1329 FILLER_2_132
*1330 FILLER_2_136
*1331 FILLER_2_141
*1332 FILLER_2_159
*1333 FILLER_2_171
*1334 FILLER_2_183
*1335 FILLER_2_189
*1336 FILLER_2_193
*1337 FILLER_2_197
*1338 FILLER_2_208
*1339 FILLER_2_21
*1340 FILLER_2_216
*1341 FILLER_2_223
*1342 FILLER_2_229
*1343 FILLER_2_233
*1344 FILLER_2_248
*1345 FILLER_2_253
*1346 FILLER_2_257
*1347 FILLER_2_266
*1348 FILLER_2_27
*1349 FILLER_2_272
*1350 FILLER_2_276
*1351 FILLER_2_288
*1352 FILLER_2_29
*1353 FILLER_2_296
*1354 FILLER_2_3
*1355 FILLER_2_41
*1356 FILLER_2_61
*1357 FILLER_2_65
*1358 FILLER_2_82
*1359 FILLER_2_85
*1360 FILLER_2_97
*1361 FILLER_30_100
*1362 FILLER_30_109
*1363 FILLER_30_117
*1364 FILLER_30_121
*1365 FILLER_30_128
*1366 FILLER_30_141
*1367 FILLER_30_150
*1368 FILLER_30_160
*1369 FILLER_30_172
*1370 FILLER_30_177
*1371 FILLER_30_189
*1372 FILLER_30_194
*1373 FILLER_30_197
*1374 FILLER_30_206
*1375 FILLER_30_21
*1376 FILLER_30_218
*1377 FILLER_30_230
*1378 FILLER_30_242
*1379 FILLER_30_250
*1380 FILLER_30_253
*1381 FILLER_30_265
*1382 FILLER_30_27
*1383 FILLER_30_277
*1384 FILLER_30_289
*1385 FILLER_30_29
*1386 FILLER_30_297
*1387 FILLER_30_3
*1388 FILLER_30_33
*1389 FILLER_30_37
*1390 FILLER_30_44
*1391 FILLER_30_55
*1392 FILLER_30_75
*1393 FILLER_30_82
*1394 FILLER_30_85
*1395 FILLER_31_110
*1396 FILLER_31_113
*1397 FILLER_31_124
*1398 FILLER_31_135
*1399 FILLER_31_143
*1400 FILLER_31_148
*1401 FILLER_31_158
*1402 FILLER_31_166
*1403 FILLER_31_169
*1404 FILLER_31_17
*1405 FILLER_31_178
*1406 FILLER_31_190
*1407 FILLER_31_202
*1408 FILLER_31_210
*1409 FILLER_31_219
*1410 FILLER_31_223
*1411 FILLER_31_225
*1412 FILLER_31_237
*1413 FILLER_31_249
*1414 FILLER_31_261
*1415 FILLER_31_273
*1416 FILLER_31_279
*1417 FILLER_31_28
*1418 FILLER_31_281
*1419 FILLER_31_293
*1420 FILLER_31_3
*1421 FILLER_31_38
*1422 FILLER_31_46
*1423 FILLER_31_52
*1424 FILLER_31_57
*1425 FILLER_31_65
*1426 FILLER_31_74
*1427 FILLER_31_87
*1428 FILLER_31_9
*1429 FILLER_31_99
*1430 FILLER_32_104
*1431 FILLER_32_108
*1432 FILLER_32_115
*1433 FILLER_32_119
*1434 FILLER_32_128
*1435 FILLER_32_132
*1436 FILLER_32_138
*1437 FILLER_32_141
*1438 FILLER_32_151
*1439 FILLER_32_163
*1440 FILLER_32_174
*1441 FILLER_32_185
*1442 FILLER_32_194
*1443 FILLER_32_197
*1444 FILLER_32_210
*1445 FILLER_32_222
*1446 FILLER_32_234
*1447 FILLER_32_246
*1448 FILLER_32_253
*1449 FILLER_32_26
*1450 FILLER_32_265
*1451 FILLER_32_277
*1452 FILLER_32_289
*1453 FILLER_32_29
*1454 FILLER_32_297
*1455 FILLER_32_3
*1456 FILLER_32_41
*1457 FILLER_32_48
*1458 FILLER_32_54
*1459 FILLER_32_58
*1460 FILLER_32_66
*1461 FILLER_32_74
*1462 FILLER_32_8
*1463 FILLER_32_82
*1464 FILLER_32_85
*1465 FILLER_32_91
*1466 FILLER_32_98
*1467 FILLER_33_107
*1468 FILLER_33_111
*1469 FILLER_33_113
*1470 FILLER_33_117
*1471 FILLER_33_121
*1472 FILLER_33_129
*1473 FILLER_33_133
*1474 FILLER_33_143
*1475 FILLER_33_15
*1476 FILLER_33_152
*1477 FILLER_33_164
*1478 FILLER_33_169
*1479 FILLER_33_177
*1480 FILLER_33_186
*1481 FILLER_33_19
*1482 FILLER_33_198
*1483 FILLER_33_210
*1484 FILLER_33_222
*1485 FILLER_33_225
*1486 FILLER_33_229
*1487 FILLER_33_237
*1488 FILLER_33_249
*1489 FILLER_33_261
*1490 FILLER_33_273
*1491 FILLER_33_279
*1492 FILLER_33_28
*1493 FILLER_33_281
*1494 FILLER_33_293
*1495 FILLER_33_3
*1496 FILLER_33_39
*1497 FILLER_33_48
*1498 FILLER_33_57
*1499 FILLER_33_68
*1500 FILLER_33_76
*1501 FILLER_33_83
*1502 FILLER_33_95
*1503 FILLER_34_104
*1504 FILLER_34_11
*1505 FILLER_34_117
*1506 FILLER_34_128
*1507 FILLER_34_135
*1508 FILLER_34_139
*1509 FILLER_34_141
*1510 FILLER_34_153
*1511 FILLER_34_163
*1512 FILLER_34_172
*1513 FILLER_34_180
*1514 FILLER_34_190
*1515 FILLER_34_197
*1516 FILLER_34_20
*1517 FILLER_34_205
*1518 FILLER_34_211
*1519 FILLER_34_218
*1520 FILLER_34_230
*1521 FILLER_34_242
*1522 FILLER_34_250
*1523 FILLER_34_253
*1524 FILLER_34_265
*1525 FILLER_34_277
*1526 FILLER_34_289
*1527 FILLER_34_29
*1528 FILLER_34_297
*1529 FILLER_34_3
*1530 FILLER_34_37
*1531 FILLER_34_46
*1532 FILLER_34_54
*1533 FILLER_34_62
*1534 FILLER_34_68
*1535 FILLER_34_72
*1536 FILLER_34_81
*1537 FILLER_34_85
*1538 FILLER_34_91
*1539 FILLER_35_104
*1540 FILLER_35_11
*1541 FILLER_35_113
*1542 FILLER_35_125
*1543 FILLER_35_135
*1544 FILLER_35_147
*1545 FILLER_35_166
*1546 FILLER_35_169
*1547 FILLER_35_17
*1548 FILLER_35_178
*1549 FILLER_35_189
*1550 FILLER_35_201
*1551 FILLER_35_205
*1552 FILLER_35_212
*1553 FILLER_35_225
*1554 FILLER_35_237
*1555 FILLER_35_249
*1556 FILLER_35_261
*1557 FILLER_35_273
*1558 FILLER_35_279
*1559 FILLER_35_28
*1560 FILLER_35_281
*1561 FILLER_35_293
*1562 FILLER_35_3
*1563 FILLER_35_42
*1564 FILLER_35_50
*1565 FILLER_35_54
*1566 FILLER_35_57
*1567 FILLER_35_61
*1568 FILLER_35_67
*1569 FILLER_35_75
*1570 FILLER_35_81
*1571 FILLER_35_93
*1572 FILLER_36_101
*1573 FILLER_36_111
*1574 FILLER_36_118
*1575 FILLER_36_128
*1576 FILLER_36_141
*1577 FILLER_36_145
*1578 FILLER_36_153
*1579 FILLER_36_161
*1580 FILLER_36_169
*1581 FILLER_36_17
*1582 FILLER_36_177
*1583 FILLER_36_188
*1584 FILLER_36_197
*1585 FILLER_36_209
*1586 FILLER_36_215
*1587 FILLER_36_233
*1588 FILLER_36_245
*1589 FILLER_36_251
*1590 FILLER_36_253
*1591 FILLER_36_26
*1592 FILLER_36_265
*1593 FILLER_36_277
*1594 FILLER_36_289
*1595 FILLER_36_29
*1596 FILLER_36_297
*1597 FILLER_36_3
*1598 FILLER_36_37
*1599 FILLER_36_42
*1600 FILLER_36_53
*1601 FILLER_36_57
*1602 FILLER_36_65
*1603 FILLER_36_75
*1604 FILLER_36_82
*1605 FILLER_36_85
*1606 FILLER_36_95
*1607 FILLER_37_105
*1608 FILLER_37_111
*1609 FILLER_37_113
*1610 FILLER_37_123
*1611 FILLER_37_129
*1612 FILLER_37_137
*1613 FILLER_37_148
*1614 FILLER_37_16
*1615 FILLER_37_160
*1616 FILLER_37_169
*1617 FILLER_37_181
*1618 FILLER_37_200
*1619 FILLER_37_204
*1620 FILLER_37_214
*1621 FILLER_37_222
*1622 FILLER_37_225
*1623 FILLER_37_246
*1624 FILLER_37_25
*1625 FILLER_37_258
*1626 FILLER_37_270
*1627 FILLER_37_278
*1628 FILLER_37_281
*1629 FILLER_37_293
*1630 FILLER_37_3
*1631 FILLER_37_34
*1632 FILLER_37_46
*1633 FILLER_37_50
*1634 FILLER_37_54
*1635 FILLER_37_57
*1636 FILLER_37_63
*1637 FILLER_37_76
*1638 FILLER_37_83
*1639 FILLER_37_9
*1640 FILLER_37_94
*1641 FILLER_38_112
*1642 FILLER_38_136
*1643 FILLER_38_141
*1644 FILLER_38_146
*1645 FILLER_38_15
*1646 FILLER_38_157
*1647 FILLER_38_174
*1648 FILLER_38_186
*1649 FILLER_38_194
*1650 FILLER_38_197
*1651 FILLER_38_209
*1652 FILLER_38_219
*1653 FILLER_38_231
*1654 FILLER_38_243
*1655 FILLER_38_251
*1656 FILLER_38_253
*1657 FILLER_38_26
*1658 FILLER_38_265
*1659 FILLER_38_277
*1660 FILLER_38_289
*1661 FILLER_38_29
*1662 FILLER_38_297
*1663 FILLER_38_3
*1664 FILLER_38_37
*1665 FILLER_38_43
*1666 FILLER_38_56
*1667 FILLER_38_62
*1668 FILLER_38_68
*1669 FILLER_38_72
*1670 FILLER_38_82
*1671 FILLER_38_85
*1672 FILLER_38_92
*1673 FILLER_39_110
*1674 FILLER_39_113
*1675 FILLER_39_126
*1676 FILLER_39_134
*1677 FILLER_39_142
*1678 FILLER_39_15
*1679 FILLER_39_154
*1680 FILLER_39_166
*1681 FILLER_39_169
*1682 FILLER_39_181
*1683 FILLER_39_197
*1684 FILLER_39_209
*1685 FILLER_39_21
*1686 FILLER_39_221
*1687 FILLER_39_225
*1688 FILLER_39_234
*1689 FILLER_39_246
*1690 FILLER_39_254
*1691 FILLER_39_266
*1692 FILLER_39_278
*1693 FILLER_39_281
*1694 FILLER_39_293
*1695 FILLER_39_3
*1696 FILLER_39_32
*1697 FILLER_39_40
*1698 FILLER_39_47
*1699 FILLER_39_54
*1700 FILLER_39_57
*1701 FILLER_39_69
*1702 FILLER_39_77
*1703 FILLER_39_85
*1704 FILLER_39_97
*1705 FILLER_3_105
*1706 FILLER_3_111
*1707 FILLER_3_113
*1708 FILLER_3_131
*1709 FILLER_3_138
*1710 FILLER_3_150
*1711 FILLER_3_162
*1712 FILLER_3_169
*1713 FILLER_3_181
*1714 FILLER_3_185
*1715 FILLER_3_191
*1716 FILLER_3_200
*1717 FILLER_3_215
*1718 FILLER_3_22
*1719 FILLER_3_223
*1720 FILLER_3_225
*1721 FILLER_3_244
*1722 FILLER_3_250
*1723 FILLER_3_256
*1724 FILLER_3_269
*1725 FILLER_3_277
*1726 FILLER_3_281
*1727 FILLER_3_293
*1728 FILLER_3_3
*1729 FILLER_3_34
*1730 FILLER_3_54
*1731 FILLER_3_57
*1732 FILLER_3_69
*1733 FILLER_3_74
*1734 FILLER_3_93
*1735 FILLER_40_104
*1736 FILLER_40_111
*1737 FILLER_40_128
*1738 FILLER_40_134
*1739 FILLER_40_138