*SPEF "ieee 1481-1999"
*DESIGN "ericsmi_speed_test"
*DATE "11:11:11 Fri 11 11, 1111"
*VENDOR "OpenRCX"
*PROGRAM "Parallel Extraction"
*VERSION "1.0"
*DESIGN_FLOW "NAME_SCOPE LOCAL" "PIN_CAP NONE"
*DIVIDER /
*DELIMITER :
*BUS_DELIMITER []
*T_UNIT 1 NS
*C_UNIT 1 PF
*R_UNIT 1 OHM
*L_UNIT 1 HENRY

*NAME_MAP
*1 io_in[0]
*2 io_in[1]
*3 io_in[2]
*4 io_in[3]
*5 io_in[4]
*6 io_in[5]
*7 io_in[6]
*8 io_in[7]
*9 io_out[0]
*10 io_out[1]
*11 io_out[2]
*12 io_out[3]
*13 io_out[4]
*14 io_out[5]
*15 io_out[6]
*16 io_out[7]
*19 _000_
*20 _001_
*21 _002_
*22 _003_
*23 _004_
*24 _005_
*25 _006_
*26 _007_
*27 _008_
*28 _009_
*29 _010_
*30 _011_
*31 _012_
*32 _013_
*33 _014_
*34 _015_
*35 _016_
*36 _017_
*37 _018_
*38 _019_
*39 _020_
*40 _021_
*41 _022_
*42 _023_
*43 _024_
*44 _025_
*45 _026_
*46 _027_
*47 _028_
*48 _029_
*49 _030_
*50 _031_
*51 _032_
*52 _033_
*53 _034_
*54 _035_
*55 _036_
*56 _037_
*57 _038_
*58 _039_
*59 _040_
*60 _041_
*61 _042_
*62 _043_
*63 _044_
*64 _045_
*65 _046_
*66 _047_
*67 _048_
*68 _049_
*69 _050_
*70 _051_
*71 _052_
*72 _053_
*73 _054_
*74 _055_
*75 _056_
*76 _057_
*77 _058_
*78 _059_
*79 _060_
*80 _061_
*81 _062_
*82 _063_
*83 _064_
*84 _065_
*85 _066_
*86 _067_
*87 _068_
*88 _069_
*89 _070_
*90 _071_
*91 _072_
*92 _073_
*93 _074_
*94 _075_
*95 _076_
*96 _077_
*97 clknet_0_io_in[0]
*98 clknet_1_0__leaf_io_in[0]
*99 clknet_1_1__leaf_io_in[0]
*100 dt0\.q
*101 dt0\.rst
*102 dt1\.q
*103 dt2\.b
*104 dt2\.q
*105 dt3\.b
*106 dt3\.q
*107 net1
*108 net10
*109 net11
*110 net12
*111 net13
*112 net14
*113 net2
*114 net3
*115 net4
*116 net5
*117 net6
*118 net7
*119 net8
*120 net9
*121 ring0\.count_en
*122 ring0\.count_en_s0
*123 ring0\.count_en_s1
*124 ring0\.dcg\.b
*125 ring0\.dcg\.clk
*126 ring0\.dcg\.pre
*127 ring0\.dcg\.q
*128 ring0\.ds0\.clk
*129 ring0\.genblk1\[10\]\.dcg\.b
*130 ring0\.genblk1\[10\]\.dcg\.clk
*131 ring0\.genblk1\[10\]\.dcg\.q
*132 ring0\.genblk1\[11\]\.dcg\.b
*133 ring0\.genblk1\[11\]\.dcg\.q
*134 ring0\.genblk1\[12\]\.dcg\.b
*135 ring0\.genblk1\[12\]\.dcg\.q
*136 ring0\.genblk1\[13\]\.dcg\.b
*137 ring0\.genblk1\[13\]\.dcg\.q
*138 ring0\.genblk1\[14\]\.dcg\.b
*139 ring0\.genblk1\[14\]\.dcg\.q
*140 ring0\.genblk1\[15\]\.dcg\.b
*141 ring0\.genblk1\[15\]\.dcg\.q
*142 ring0\.genblk1\[16\]\.dcg\.b
*143 ring0\.genblk1\[16\]\.dcg\.q
*144 ring0\.genblk1\[17\]\.dcg\.b
*145 ring0\.genblk1\[17\]\.dcg\.q
*146 ring0\.genblk1\[18\]\.dcg\.b
*147 ring0\.genblk1\[18\]\.dcg\.q
*148 ring0\.genblk1\[19\]\.dcg\.b
*149 ring0\.genblk1\[19\]\.dcg\.q
*150 ring0\.genblk1\[1\]\.dcg\.b
*151 ring0\.genblk1\[1\]\.dcg\.q
*152 ring0\.genblk1\[20\]\.dcg\.b
*153 ring0\.genblk1\[20\]\.dcg\.q
*154 ring0\.genblk1\[21\]\.dcg\.b
*155 ring0\.genblk1\[21\]\.dcg\.q
*156 ring0\.genblk1\[22\]\.dcg\.b
*157 ring0\.genblk1\[2\]\.dcg\.b
*158 ring0\.genblk1\[2\]\.dcg\.q
*159 ring0\.genblk1\[3\]\.dcg\.b
*160 ring0\.genblk1\[3\]\.dcg\.q
*161 ring0\.genblk1\[4\]\.dcg\.b
*162 ring0\.genblk1\[4\]\.dcg\.q
*163 ring0\.genblk1\[5\]\.dcg\.b
*164 ring0\.genblk1\[5\]\.dcg\.q
*165 ring0\.genblk1\[6\]\.dcg\.b
*166 ring0\.genblk1\[6\]\.dcg\.q
*167 ring0\.genblk1\[7\]\.dcg\.b
*168 ring0\.genblk1\[7\]\.dcg\.q
*169 ring0\.genblk1\[8\]\.dcg\.b
*170 ring0\.genblk1\[8\]\.dcg\.q
*171 ring0\.genblk1\[9\]\.dcg\.b
*172 ring0\.inv_b\.A
*173 ring0\.ring_osc\.idelay\[0\]\.Y
*174 ring0\.ring_osc\.idelay\[100\]\.A
*175 ring0\.ring_osc\.idelay\[100\]\.Y
*176 ring0\.ring_osc\.idelay\[101\]\.Y
*177 ring0\.ring_osc\.idelay\[102\]\.Y
*178 ring0\.ring_osc\.idelay\[103\]\.Y
*179 ring0\.ring_osc\.idelay\[104\]\.Y
*180 ring0\.ring_osc\.idelay\[105\]\.Y
*181 ring0\.ring_osc\.idelay\[106\]\.Y
*182 ring0\.ring_osc\.idelay\[107\]\.Y
*183 ring0\.ring_osc\.idelay\[108\]\.Y
*184 ring0\.ring_osc\.idelay\[109\]\.Y
*185 ring0\.ring_osc\.idelay\[10\]\.A
*186 ring0\.ring_osc\.idelay\[10\]\.Y
*187 ring0\.ring_osc\.idelay\[110\]\.Y
*188 ring0\.ring_osc\.idelay\[111\]\.Y
*189 ring0\.ring_osc\.idelay\[112\]\.Y
*190 ring0\.ring_osc\.idelay\[113\]\.Y
*191 ring0\.ring_osc\.idelay\[114\]\.Y
*192 ring0\.ring_osc\.idelay\[115\]\.Y
*193 ring0\.ring_osc\.idelay\[116\]\.Y
*194 ring0\.ring_osc\.idelay\[117\]\.Y
*195 ring0\.ring_osc\.idelay\[118\]\.Y
*196 ring0\.ring_osc\.idelay\[119\]\.Y
*197 ring0\.ring_osc\.idelay\[11\]\.Y
*198 ring0\.ring_osc\.idelay\[120\]\.Y
*199 ring0\.ring_osc\.idelay\[121\]\.Y
*200 ring0\.ring_osc\.idelay\[122\]\.Y
*201 ring0\.ring_osc\.idelay\[123\]\.Y
*202 ring0\.ring_osc\.idelay\[124\]\.Y
*203 ring0\.ring_osc\.idelay\[125\]\.Y
*204 ring0\.ring_osc\.idelay\[126\]\.Y
*205 ring0\.ring_osc\.idelay\[127\]\.Y
*206 ring0\.ring_osc\.idelay\[128\]\.Y
*207 ring0\.ring_osc\.idelay\[129\]\.Y
*208 ring0\.ring_osc\.idelay\[12\]\.Y
*209 ring0\.ring_osc\.idelay\[130\]\.Y
*210 ring0\.ring_osc\.idelay\[131\]\.Y
*211 ring0\.ring_osc\.idelay\[132\]\.Y
*212 ring0\.ring_osc\.idelay\[133\]\.Y
*213 ring0\.ring_osc\.idelay\[134\]\.Y
*214 ring0\.ring_osc\.idelay\[135\]\.Y
*215 ring0\.ring_osc\.idelay\[136\]\.Y
*216 ring0\.ring_osc\.idelay\[137\]\.Y
*217 ring0\.ring_osc\.idelay\[138\]\.Y
*218 ring0\.ring_osc\.idelay\[139\]\.Y
*219 ring0\.ring_osc\.idelay\[13\]\.Y
*220 ring0\.ring_osc\.idelay\[140\]\.Y
*221 ring0\.ring_osc\.idelay\[141\]\.Y
*222 ring0\.ring_osc\.idelay\[142\]\.Y
*223 ring0\.ring_osc\.idelay\[143\]\.Y
*224 ring0\.ring_osc\.idelay\[144\]\.Y
*225 ring0\.ring_osc\.idelay\[145\]\.Y
*226 ring0\.ring_osc\.idelay\[146\]\.Y
*227 ring0\.ring_osc\.idelay\[147\]\.Y
*228 ring0\.ring_osc\.idelay\[148\]\.Y
*229 ring0\.ring_osc\.idelay\[149\]\.Y
*230 ring0\.ring_osc\.idelay\[14\]\.Y
*231 ring0\.ring_osc\.idelay\[15\]\.Y
*232 ring0\.ring_osc\.idelay\[16\]\.Y
*233 ring0\.ring_osc\.idelay\[17\]\.Y
*234 ring0\.ring_osc\.idelay\[18\]\.Y
*235 ring0\.ring_osc\.idelay\[19\]\.Y
*236 ring0\.ring_osc\.idelay\[1\]\.Y
*237 ring0\.ring_osc\.idelay\[20\]\.Y
*238 ring0\.ring_osc\.idelay\[21\]\.Y
*239 ring0\.ring_osc\.idelay\[22\]\.Y
*240 ring0\.ring_osc\.idelay\[23\]\.Y
*241 ring0\.ring_osc\.idelay\[24\]\.Y
*242 ring0\.ring_osc\.idelay\[25\]\.Y
*243 ring0\.ring_osc\.idelay\[26\]\.Y
*244 ring0\.ring_osc\.idelay\[27\]\.Y
*245 ring0\.ring_osc\.idelay\[28\]\.Y
*246 ring0\.ring_osc\.idelay\[29\]\.Y
*247 ring0\.ring_osc\.idelay\[2\]\.Y
*248 ring0\.ring_osc\.idelay\[30\]\.Y
*249 ring0\.ring_osc\.idelay\[31\]\.Y
*250 ring0\.ring_osc\.idelay\[32\]\.Y
*251 ring0\.ring_osc\.idelay\[33\]\.Y
*252 ring0\.ring_osc\.idelay\[34\]\.Y
*253 ring0\.ring_osc\.idelay\[35\]\.Y
*254 ring0\.ring_osc\.idelay\[36\]\.Y
*255 ring0\.ring_osc\.idelay\[37\]\.Y
*256 ring0\.ring_osc\.idelay\[38\]\.Y
*257 ring0\.ring_osc\.idelay\[39\]\.Y
*258 ring0\.ring_osc\.idelay\[3\]\.Y
*259 ring0\.ring_osc\.idelay\[40\]\.Y
*260 ring0\.ring_osc\.idelay\[41\]\.Y
*261 ring0\.ring_osc\.idelay\[42\]\.Y
*262 ring0\.ring_osc\.idelay\[43\]\.Y
*263 ring0\.ring_osc\.idelay\[44\]\.Y
*264 ring0\.ring_osc\.idelay\[45\]\.Y
*265 ring0\.ring_osc\.idelay\[46\]\.Y
*266 ring0\.ring_osc\.idelay\[47\]\.Y
*267 ring0\.ring_osc\.idelay\[48\]\.Y
*268 ring0\.ring_osc\.idelay\[49\]\.Y
*269 ring0\.ring_osc\.idelay\[4\]\.Y
*270 ring0\.ring_osc\.idelay\[50\]\.Y
*271 ring0\.ring_osc\.idelay\[51\]\.Y
*272 ring0\.ring_osc\.idelay\[52\]\.Y
*273 ring0\.ring_osc\.idelay\[53\]\.Y
*274 ring0\.ring_osc\.idelay\[54\]\.Y
*275 ring0\.ring_osc\.idelay\[55\]\.Y
*276 ring0\.ring_osc\.idelay\[56\]\.Y
*277 ring0\.ring_osc\.idelay\[57\]\.Y
*278 ring0\.ring_osc\.idelay\[58\]\.Y
*279 ring0\.ring_osc\.idelay\[59\]\.Y
*280 ring0\.ring_osc\.idelay\[5\]\.Y
*281 ring0\.ring_osc\.idelay\[60\]\.Y
*282 ring0\.ring_osc\.idelay\[61\]\.Y
*283 ring0\.ring_osc\.idelay\[62\]\.Y
*284 ring0\.ring_osc\.idelay\[63\]\.Y
*285 ring0\.ring_osc\.idelay\[64\]\.Y
*286 ring0\.ring_osc\.idelay\[65\]\.Y
*287 ring0\.ring_osc\.idelay\[66\]\.Y
*288 ring0\.ring_osc\.idelay\[67\]\.Y
*289 ring0\.ring_osc\.idelay\[68\]\.Y
*290 ring0\.ring_osc\.idelay\[69\]\.Y
*291 ring0\.ring_osc\.idelay\[6\]\.Y
*292 ring0\.ring_osc\.idelay\[70\]\.Y
*293 ring0\.ring_osc\.idelay\[71\]\.Y
*294 ring0\.ring_osc\.idelay\[72\]\.Y
*295 ring0\.ring_osc\.idelay\[73\]\.Y
*296 ring0\.ring_osc\.idelay\[74\]\.Y
*297 ring0\.ring_osc\.idelay\[75\]\.Y
*298 ring0\.ring_osc\.idelay\[76\]\.Y
*299 ring0\.ring_osc\.idelay\[77\]\.Y
*300 ring0\.ring_osc\.idelay\[78\]\.Y
*301 ring0\.ring_osc\.idelay\[79\]\.Y
*302 ring0\.ring_osc\.idelay\[7\]\.Y
*303 ring0\.ring_osc\.idelay\[80\]\.Y
*304 ring0\.ring_osc\.idelay\[81\]\.Y
*305 ring0\.ring_osc\.idelay\[82\]\.Y
*306 ring0\.ring_osc\.idelay\[83\]\.Y
*307 ring0\.ring_osc\.idelay\[84\]\.Y
*308 ring0\.ring_osc\.idelay\[85\]\.Y
*309 ring0\.ring_osc\.idelay\[86\]\.Y
*310 ring0\.ring_osc\.idelay\[87\]\.Y
*311 ring0\.ring_osc\.idelay\[88\]\.Y
*312 ring0\.ring_osc\.idelay\[89\]\.Y
*313 ring0\.ring_osc\.idelay\[8\]\.Y
*314 ring0\.ring_osc\.idelay\[90\]\.Y
*315 ring0\.ring_osc\.idelay\[91\]\.Y
*316 ring0\.ring_osc\.idelay\[92\]\.Y
*317 ring0\.ring_osc\.idelay\[93\]\.Y
*318 ring0\.ring_osc\.idelay\[94\]\.Y
*319 ring0\.ring_osc\.idelay\[95\]\.Y
*320 ring0\.ring_osc\.idelay\[96\]\.Y
*321 ring0\.ring_osc\.idelay\[97\]\.Y
*322 ring0\.ring_osc\.idelay\[98\]\.Y
*323 ring1\.count_en_s0
*324 ring1\.count_en_s1
*325 ring1\.dcg\.b
*326 ring1\.dcg\.clk
*327 ring1\.dcg\.pre
*328 ring1\.dcg\.q
*329 ring1\.ds0\.clk
*330 ring1\.genblk1\[10\]\.dcg\.b
*331 ring1\.genblk1\[10\]\.dcg\.clk
*332 ring1\.genblk1\[10\]\.dcg\.q
*333 ring1\.genblk1\[11\]\.dcg\.b
*334 ring1\.genblk1\[11\]\.dcg\.q
*335 ring1\.genblk1\[12\]\.dcg\.b
*336 ring1\.genblk1\[12\]\.dcg\.q
*337 ring1\.genblk1\[13\]\.dcg\.b
*338 ring1\.genblk1\[13\]\.dcg\.q
*339 ring1\.genblk1\[14\]\.dcg\.b
*340 ring1\.genblk1\[14\]\.dcg\.q
*341 ring1\.genblk1\[15\]\.dcg\.b
*342 ring1\.genblk1\[15\]\.dcg\.q
*343 ring1\.genblk1\[16\]\.dcg\.b
*344 ring1\.genblk1\[16\]\.dcg\.q
*345 ring1\.genblk1\[17\]\.dcg\.b
*346 ring1\.genblk1\[17\]\.dcg\.q
*347 ring1\.genblk1\[18\]\.dcg\.b
*348 ring1\.genblk1\[18\]\.dcg\.q
*349 ring1\.genblk1\[19\]\.dcg\.b
*350 ring1\.genblk1\[19\]\.dcg\.q
*351 ring1\.genblk1\[1\]\.dcg\.b
*352 ring1\.genblk1\[1\]\.dcg\.q
*353 ring1\.genblk1\[20\]\.dcg\.b
*354 ring1\.genblk1\[20\]\.dcg\.q
*355 ring1\.genblk1\[21\]\.dcg\.b
*356 ring1\.genblk1\[21\]\.dcg\.q
*357 ring1\.genblk1\[22\]\.dcg\.b
*358 ring1\.genblk1\[2\]\.dcg\.b
*359 ring1\.genblk1\[2\]\.dcg\.q
*360 ring1\.genblk1\[3\]\.dcg\.b
*361 ring1\.genblk1\[3\]\.dcg\.q
*362 ring1\.genblk1\[4\]\.dcg\.b
*363 ring1\.genblk1\[4\]\.dcg\.q
*364 ring1\.genblk1\[5\]\.dcg\.b
*365 ring1\.genblk1\[5\]\.dcg\.q
*366 ring1\.genblk1\[6\]\.dcg\.b
*367 ring1\.genblk1\[6\]\.dcg\.q
*368 ring1\.genblk1\[7\]\.dcg\.b
*369 ring1\.genblk1\[7\]\.dcg\.q
*370 ring1\.genblk1\[8\]\.dcg\.b
*371 ring1\.genblk1\[8\]\.dcg\.q
*372 ring1\.genblk1\[9\]\.dcg\.b
*373 ring1\.inv_b\.A
*374 ring1\.ring_osc\.idelay\[0\]\.Y
*375 ring1\.ring_osc\.idelay\[100\]\.A
*376 ring1\.ring_osc\.idelay\[100\]\.Y
*377 ring1\.ring_osc\.idelay\[101\]\.Y
*378 ring1\.ring_osc\.idelay\[102\]\.Y
*379 ring1\.ring_osc\.idelay\[103\]\.Y
*380 ring1\.ring_osc\.idelay\[104\]\.Y
*381 ring1\.ring_osc\.idelay\[105\]\.Y
*382 ring1\.ring_osc\.idelay\[106\]\.Y
*383 ring1\.ring_osc\.idelay\[107\]\.Y
*384 ring1\.ring_osc\.idelay\[108\]\.Y
*385 ring1\.ring_osc\.idelay\[109\]\.Y
*386 ring1\.ring_osc\.idelay\[10\]\.A
*387 ring1\.ring_osc\.idelay\[10\]\.Y
*388 ring1\.ring_osc\.idelay\[110\]\.Y
*389 ring1\.ring_osc\.idelay\[111\]\.Y
*390 ring1\.ring_osc\.idelay\[112\]\.Y
*391 ring1\.ring_osc\.idelay\[113\]\.Y
*392 ring1\.ring_osc\.idelay\[114\]\.Y
*393 ring1\.ring_osc\.idelay\[115\]\.Y
*394 ring1\.ring_osc\.idelay\[116\]\.Y
*395 ring1\.ring_osc\.idelay\[117\]\.Y
*396 ring1\.ring_osc\.idelay\[118\]\.Y
*397 ring1\.ring_osc\.idelay\[119\]\.Y
*398 ring1\.ring_osc\.idelay\[11\]\.Y
*399 ring1\.ring_osc\.idelay\[120\]\.Y
*400 ring1\.ring_osc\.idelay\[121\]\.Y
*401 ring1\.ring_osc\.idelay\[122\]\.Y
*402 ring1\.ring_osc\.idelay\[123\]\.Y
*403 ring1\.ring_osc\.idelay\[124\]\.Y
*404 ring1\.ring_osc\.idelay\[125\]\.Y
*405 ring1\.ring_osc\.idelay\[126\]\.Y
*406 ring1\.ring_osc\.idelay\[127\]\.Y
*407 ring1\.ring_osc\.idelay\[128\]\.Y
*408 ring1\.ring_osc\.idelay\[129\]\.Y
*409 ring1\.ring_osc\.idelay\[12\]\.Y
*410 ring1\.ring_osc\.idelay\[130\]\.Y
*411 ring1\.ring_osc\.idelay\[131\]\.Y
*412 ring1\.ring_osc\.idelay\[132\]\.Y
*413 ring1\.ring_osc\.idelay\[133\]\.Y
*414 ring1\.ring_osc\.idelay\[134\]\.Y
*415 ring1\.ring_osc\.idelay\[135\]\.Y
*416 ring1\.ring_osc\.idelay\[136\]\.Y
*417 ring1\.ring_osc\.idelay\[137\]\.Y
*418 ring1\.ring_osc\.idelay\[138\]\.Y
*419 ring1\.ring_osc\.idelay\[139\]\.Y
*420 ring1\.ring_osc\.idelay\[13\]\.Y
*421 ring1\.ring_osc\.idelay\[140\]\.Y
*422 ring1\.ring_osc\.idelay\[141\]\.Y
*423 ring1\.ring_osc\.idelay\[142\]\.Y
*424 ring1\.ring_osc\.idelay\[143\]\.Y
*425 ring1\.ring_osc\.idelay\[144\]\.Y
*426 ring1\.ring_osc\.idelay\[145\]\.Y
*427 ring1\.ring_osc\.idelay\[146\]\.Y
*428 ring1\.ring_osc\.idelay\[147\]\.Y
*429 ring1\.ring_osc\.idelay\[148\]\.Y
*430 ring1\.ring_osc\.idelay\[149\]\.Y
*431 ring1\.ring_osc\.idelay\[14\]\.Y
*432 ring1\.ring_osc\.idelay\[15\]\.Y
*433 ring1\.ring_osc\.idelay\[16\]\.Y
*434 ring1\.ring_osc\.idelay\[17\]\.Y
*435 ring1\.ring_osc\.idelay\[18\]\.Y
*436 ring1\.ring_osc\.idelay\[19\]\.Y
*437 ring1\.ring_osc\.idelay\[1\]\.Y
*438 ring1\.ring_osc\.idelay\[20\]\.Y
*439 ring1\.ring_osc\.idelay\[21\]\.Y
*440 ring1\.ring_osc\.idelay\[22\]\.Y
*441 ring1\.ring_osc\.idelay\[23\]\.Y
*442 ring1\.ring_osc\.idelay\[24\]\.Y
*443 ring1\.ring_osc\.idelay\[25\]\.Y
*444 ring1\.ring_osc\.idelay\[26\]\.Y
*445 ring1\.ring_osc\.idelay\[27\]\.Y
*446 ring1\.ring_osc\.idelay\[28\]\.Y
*447 ring1\.ring_osc\.idelay\[29\]\.Y
*448 ring1\.ring_osc\.idelay\[2\]\.Y
*449 ring1\.ring_osc\.idelay\[30\]\.Y
*450 ring1\.ring_osc\.idelay\[31\]\.Y
*451 ring1\.ring_osc\.idelay\[32\]\.Y
*452 ring1\.ring_osc\.idelay\[33\]\.Y
*453 ring1\.ring_osc\.idelay\[34\]\.Y
*454 ring1\.ring_osc\.idelay\[35\]\.Y
*455 ring1\.ring_osc\.idelay\[36\]\.Y
*456 ring1\.ring_osc\.idelay\[37\]\.Y
*457 ring1\.ring_osc\.idelay\[38\]\.Y
*458 ring1\.ring_osc\.idelay\[39\]\.Y
*459 ring1\.ring_osc\.idelay\[3\]\.Y
*460 ring1\.ring_osc\.idelay\[40\]\.Y
*461 ring1\.ring_osc\.idelay\[41\]\.Y
*462 ring1\.ring_osc\.idelay\[42\]\.Y
*463 ring1\.ring_osc\.idelay\[43\]\.Y
*464 ring1\.ring_osc\.idelay\[44\]\.Y
*465 ring1\.ring_osc\.idelay\[45\]\.Y
*466 ring1\.ring_osc\.idelay\[46\]\.Y
*467 ring1\.ring_osc\.idelay\[47\]\.Y
*468 ring1\.ring_osc\.idelay\[48\]\.Y
*469 ring1\.ring_osc\.idelay\[49\]\.Y
*470 ring1\.ring_osc\.idelay\[4\]\.Y
*471 ring1\.ring_osc\.idelay\[50\]\.Y
*472 ring1\.ring_osc\.idelay\[51\]\.Y
*473 ring1\.ring_osc\.idelay\[52\]\.Y
*474 ring1\.ring_osc\.idelay\[53\]\.Y
*475 ring1\.ring_osc\.idelay\[54\]\.Y
*476 ring1\.ring_osc\.idelay\[55\]\.Y
*477 ring1\.ring_osc\.idelay\[56\]\.Y
*478 ring1\.ring_osc\.idelay\[57\]\.Y
*479 ring1\.ring_osc\.idelay\[58\]\.Y
*480 ring1\.ring_osc\.idelay\[59\]\.Y
*481 ring1\.ring_osc\.idelay\[5\]\.Y
*482 ring1\.ring_osc\.idelay\[60\]\.Y
*483 ring1\.ring_osc\.idelay\[61\]\.Y
*484 ring1\.ring_osc\.idelay\[62\]\.Y
*485 ring1\.ring_osc\.idelay\[63\]\.Y
*486 ring1\.ring_osc\.idelay\[64\]\.Y
*487 ring1\.ring_osc\.idelay\[65\]\.Y
*488 ring1\.ring_osc\.idelay\[66\]\.Y
*489 ring1\.ring_osc\.idelay\[67\]\.Y
*490 ring1\.ring_osc\.idelay\[68\]\.Y
*491 ring1\.ring_osc\.idelay\[69\]\.Y
*492 ring1\.ring_osc\.idelay\[6\]\.Y
*493 ring1\.ring_osc\.idelay\[70\]\.Y
*494 ring1\.ring_osc\.idelay\[71\]\.Y
*495 ring1\.ring_osc\.idelay\[72\]\.Y
*496 ring1\.ring_osc\.idelay\[73\]\.Y
*497 ring1\.ring_osc\.idelay\[74\]\.Y
*498 ring1\.ring_osc\.idelay\[75\]\.Y
*499 ring1\.ring_osc\.idelay\[76\]\.Y
*500 ring1\.ring_osc\.idelay\[77\]\.Y
*501 ring1\.ring_osc\.idelay\[78\]\.Y
*502 ring1\.ring_osc\.idelay\[79\]\.Y
*503 ring1\.ring_osc\.idelay\[7\]\.Y
*504 ring1\.ring_osc\.idelay\[80\]\.Y
*505 ring1\.ring_osc\.idelay\[81\]\.Y
*506 ring1\.ring_osc\.idelay\[82\]\.Y
*507 ring1\.ring_osc\.idelay\[83\]\.Y
*508 ring1\.ring_osc\.idelay\[84\]\.Y
*509 ring1\.ring_osc\.idelay\[85\]\.Y
*510 ring1\.ring_osc\.idelay\[86\]\.Y
*511 ring1\.ring_osc\.idelay\[87\]\.Y
*512 ring1\.ring_osc\.idelay\[88\]\.Y
*513 ring1\.ring_osc\.idelay\[89\]\.Y
*514 ring1\.ring_osc\.idelay\[8\]\.Y
*515 ring1\.ring_osc\.idelay\[90\]\.Y
*516 ring1\.ring_osc\.idelay\[91\]\.Y
*517 ring1\.ring_osc\.idelay\[92\]\.Y
*518 ring1\.ring_osc\.idelay\[93\]\.Y
*519 ring1\.ring_osc\.idelay\[94\]\.Y
*520 ring1\.ring_osc\.idelay\[95\]\.Y
*521 ring1\.ring_osc\.idelay\[96\]\.Y
*522 ring1\.ring_osc\.idelay\[97\]\.Y
*523 ring1\.ring_osc\.idelay\[98\]\.Y
*524 ANTENNA_1
*525 FILLER_0_103
*526 FILLER_0_110
*527 FILLER_0_113
*528 FILLER_0_124
*529 FILLER_0_131
*530 FILLER_0_138
*531 FILLER_0_141
*532 FILLER_0_145
*533 FILLER_0_149
*534 FILLER_0_156
*535 FILLER_0_163
*536 FILLER_0_167
*537 FILLER_0_169
*538 FILLER_0_174
*539 FILLER_0_186
*540 FILLER_0_194
*541 FILLER_0_197
*542 FILLER_0_209
*543 FILLER_0_221
*544 FILLER_0_225
*545 FILLER_0_237
*546 FILLER_0_249
*547 FILLER_0_25
*548 FILLER_0_253
*549 FILLER_0_265
*550 FILLER_0_277
*551 FILLER_0_281
*552 FILLER_0_29
*553 FILLER_0_293
*554 FILLER_0_3
*555 FILLER_0_51
*556 FILLER_0_55
*557 FILLER_0_57
*558 FILLER_0_63
*559 FILLER_0_70
*560 FILLER_0_78
*561 FILLER_0_82
*562 FILLER_0_85
*563 FILLER_0_96
*564 FILLER_10_102
*565 FILLER_10_114
*566 FILLER_10_12
*567 FILLER_10_126
*568 FILLER_10_131
*569 FILLER_10_139
*570 FILLER_10_141
*571 FILLER_10_145
*572 FILLER_10_149
*573 FILLER_10_153
*574 FILLER_10_157
*575 FILLER_10_164
*576 FILLER_10_171
*577 FILLER_10_175
*578 FILLER_10_179
*579 FILLER_10_19
*580 FILLER_10_191
*581 FILLER_10_195
*582 FILLER_10_197
*583 FILLER_10_209
*584 FILLER_10_221
*585 FILLER_10_233
*586 FILLER_10_245
*587 FILLER_10_251
*588 FILLER_10_253
*589 FILLER_10_26
*590 FILLER_10_265
*591 FILLER_10_277
*592 FILLER_10_289
*593 FILLER_10_29
*594 FILLER_10_297
*595 FILLER_10_3
*596 FILLER_10_36
*597 FILLER_10_47
*598 FILLER_10_54
*599 FILLER_10_61
*600 FILLER_10_67
*601 FILLER_10_71
*602 FILLER_10_75
*603 FILLER_10_79
*604 FILLER_10_83
*605 FILLER_10_85
*606 FILLER_10_90
*607 FILLER_11_102
*608 FILLER_11_110
*609 FILLER_11_113
*610 FILLER_11_119
*611 FILLER_11_123
*612 FILLER_11_130
*613 FILLER_11_137
*614 FILLER_11_144
*615 FILLER_11_151
*616 FILLER_11_158
*617 FILLER_11_165
*618 FILLER_11_169
*619 FILLER_11_174
*620 FILLER_11_18
*621 FILLER_11_181
*622 FILLER_11_193
*623 FILLER_11_205
*624 FILLER_11_217
*625 FILLER_11_223
*626 FILLER_11_225
*627 FILLER_11_237
*628 FILLER_11_249
*629 FILLER_11_25
*630 FILLER_11_261
*631 FILLER_11_273
*632 FILLER_11_279
*633 FILLER_11_281
*634 FILLER_11_293
*635 FILLER_11_3
*636 FILLER_11_32
*637 FILLER_11_39
*638 FILLER_11_46
*639 FILLER_11_53
*640 FILLER_11_57
*641 FILLER_11_66
*642 FILLER_11_73
*643 FILLER_11_82
*644 FILLER_11_86
*645 FILLER_11_9
*646 FILLER_11_90
*647 FILLER_12_100
*648 FILLER_12_104
*649 FILLER_12_113
*650 FILLER_12_138
*651 FILLER_12_141
*652 FILLER_12_146
*653 FILLER_12_15
*654 FILLER_12_150
*655 FILLER_12_154
*656 FILLER_12_165
*657 FILLER_12_172
*658 FILLER_12_184
*659 FILLER_12_197
*660 FILLER_12_209
*661 FILLER_12_221
*662 FILLER_12_233
*663 FILLER_12_245
*664 FILLER_12_251
*665 FILLER_12_253
*666 FILLER_12_26
*667 FILLER_12_265
*668 FILLER_12_277
*669 FILLER_12_289
*670 FILLER_12_29
*671 FILLER_12_297
*672 FILLER_12_3
*673 FILLER_12_36
*674 FILLER_12_43
*675 FILLER_12_50
*676 FILLER_12_57
*677 FILLER_12_82
*678 FILLER_12_85
*679 FILLER_12_96
*680 FILLER_13_103
*681 FILLER_13_110
*682 FILLER_13_113
*683 FILLER_13_13
*684 FILLER_13_136
*685 FILLER_13_144
*686 FILLER_13_148
*687 FILLER_13_155
*688 FILLER_13_164
*689 FILLER_13_169
*690 FILLER_13_174
*691 FILLER_13_181
*692 FILLER_13_188
*693 FILLER_13_20
*694 FILLER_13_200
*695 FILLER_13_212
*696 FILLER_13_225
*697 FILLER_13_237
*698 FILLER_13_249
*699 FILLER_13_261
*700 FILLER_13_27
*701 FILLER_13_273
*702 FILLER_13_279
*703 FILLER_13_281
*704 FILLER_13_293
*705 FILLER_13_3
*706 FILLER_13_34
*707 FILLER_13_41
*708 FILLER_13_51
*709 FILLER_13_55
*710 FILLER_13_57
*711 FILLER_13_68
*712 FILLER_13_75
*713 FILLER_13_82
*714 FILLER_13_89
*715 FILLER_13_9
*716 FILLER_13_96
*717 FILLER_14_100
*718 FILLER_14_125
*719 FILLER_14_133
*720 FILLER_14_138
*721 FILLER_14_141
*722 FILLER_14_147
*723 FILLER_14_151
*724 FILLER_14_158
*725 FILLER_14_165
*726 FILLER_14_17
*727 FILLER_14_172
*728 FILLER_14_184
*729 FILLER_14_197
*730 FILLER_14_209
*731 FILLER_14_221
*732 FILLER_14_233
*733 FILLER_14_245
*734 FILLER_14_251
*735 FILLER_14_253
*736 FILLER_14_26
*737 FILLER_14_265
*738 FILLER_14_277
*739 FILLER_14_289
*740 FILLER_14_29
*741 FILLER_14_297
*742 FILLER_14_3
*743 FILLER_14_52
*744 FILLER_14_61
*745 FILLER_14_68
*746 FILLER_14_7
*747 FILLER_14_75
*748 FILLER_14_82
*749 FILLER_14_85
*750 FILLER_14_89
*751 FILLER_14_93
*752 FILLER_15_103
*753 FILLER_15_110
*754 FILLER_15_113
*755 FILLER_15_119
*756 FILLER_15_126
*757 FILLER_15_133
*758 FILLER_15_140
*759 FILLER_15_144
*760 FILLER_15_148
*761 FILLER_15_15
*762 FILLER_15_155
*763 FILLER_15_166
*764 FILLER_15_169
*765 FILLER_15_174
*766 FILLER_15_181
*767 FILLER_15_193
*768 FILLER_15_205
*769 FILLER_15_217
*770 FILLER_15_223
*771 FILLER_15_225
*772 FILLER_15_23
*773 FILLER_15_237
*774 FILLER_15_249
*775 FILLER_15_261
*776 FILLER_15_273
*777 FILLER_15_279
*778 FILLER_15_28
*779 FILLER_15_281
*780 FILLER_15_293
*781 FILLER_15_3
*782 FILLER_15_35
*783 FILLER_15_42
*784 FILLER_15_50
*785 FILLER_15_57
*786 FILLER_15_80
*787 FILLER_15_89
*788 FILLER_15_96
*789 FILLER_16_100
*790 FILLER_16_107
*791 FILLER_16_114
*792 FILLER_16_121
*793 FILLER_16_128
*794 FILLER_16_135
*795 FILLER_16_139
*796 FILLER_16_141
*797 FILLER_16_152
*798 FILLER_16_159
*799 FILLER_16_163
*800 FILLER_16_167
*801 FILLER_16_174
*802 FILLER_16_180
*803 FILLER_16_184
*804 FILLER_16_191
*805 FILLER_16_195
*806 FILLER_16_197
*807 FILLER_16_209
*808 FILLER_16_221
*809 FILLER_16_233
*810 FILLER_16_245
*811 FILLER_16_251
*812 FILLER_16_253
*813 FILLER_16_26
*814 FILLER_16_265
*815 FILLER_16_277
*816 FILLER_16_289
*817 FILLER_16_29
*818 FILLER_16_297
*819 FILLER_16_3
*820 FILLER_16_40
*821 FILLER_16_46
*822 FILLER_16_50
*823 FILLER_16_57
*824 FILLER_16_64
*825 FILLER_16_71
*826 FILLER_16_82
*827 FILLER_16_85
*828 FILLER_16_89
*829 FILLER_16_9
*830 FILLER_16_93
*831 FILLER_17_103
*832 FILLER_17_110
*833 FILLER_17_113
*834 FILLER_17_13
*835 FILLER_17_136
*836 FILLER_17_143
*837 FILLER_17_155
*838 FILLER_17_159
*839 FILLER_17_166
*840 FILLER_17_169
*841 FILLER_17_174
*842 FILLER_17_181
*843 FILLER_17_188
*844 FILLER_17_200
*845 FILLER_17_21
*846 FILLER_17_212
*847 FILLER_17_225
*848 FILLER_17_237
*849 FILLER_17_249
*850 FILLER_17_25
*851 FILLER_17_261
*852 FILLER_17_273
*853 FILLER_17_279
*854 FILLER_17_281
*855 FILLER_17_293
*856 FILLER_17_3
*857 FILLER_17_32
*858 FILLER_17_39
*859 FILLER_17_43
*860 FILLER_17_47
*861 FILLER_17_54
*862 FILLER_17_57
*863 FILLER_17_66
*864 FILLER_17_77
*865 FILLER_17_84
*866 FILLER_17_91
*867 FILLER_17_99
*868 FILLER_18_101
*869 FILLER_18_108
*870 FILLER_18_120
*871 FILLER_18_132
*872 FILLER_18_141
*873 FILLER_18_146
*874 FILLER_18_161
*875 FILLER_18_170
*876 FILLER_18_174
*877 FILLER_18_178
*878 FILLER_18_185
*879 FILLER_18_192
*880 FILLER_18_197
*881 FILLER_18_209
*882 FILLER_18_221
*883 FILLER_18_233
*884 FILLER_18_245
*885 FILLER_18_251
*886 FILLER_18_253
*887 FILLER_18_26
*888 FILLER_18_265
*889 FILLER_18_277
*890 FILLER_18_289
*891 FILLER_18_29
*892 FILLER_18_297
*893 FILLER_18_3
*894 FILLER_18_36
*895 FILLER_18_43
*896 FILLER_18_51
*897 FILLER_18_55
*898 FILLER_18_70
*899 FILLER_18_78
*900 FILLER_18_82
*901 FILLER_18_85
*902 FILLER_18_94
*903 FILLER_19_104
*904 FILLER_19_113
*905 FILLER_19_121
*906 FILLER_19_125
*907 FILLER_19_137
*908 FILLER_19_166
*909 FILLER_19_169
*910 FILLER_19_174
*911 FILLER_19_181
*912 FILLER_19_188
*913 FILLER_19_195
*914 FILLER_19_207
*915 FILLER_19_219
*916 FILLER_19_223
*917 FILLER_19_225
*918 FILLER_19_237
*919 FILLER_19_249
*920 FILLER_19_261
*921 FILLER_19_273
*922 FILLER_19_279
*923 FILLER_19_281
*924 FILLER_19_293
*925 FILLER_19_3
*926 FILLER_19_33
*927 FILLER_19_48
*928 FILLER_19_57
*929 FILLER_19_62
*930 FILLER_19_71
*931 FILLER_19_75
*932 FILLER_19_79
*933 FILLER_19_8
*934 FILLER_19_87
*935 FILLER_19_91
*936 FILLER_1_103
*937 FILLER_1_110
*938 FILLER_1_113
*939 FILLER_1_117
*940 FILLER_1_121
*941 FILLER_1_128
*942 FILLER_1_135
*943 FILLER_1_142
*944 FILLER_1_149
*945 FILLER_1_156
*946 FILLER_1_163
*947 FILLER_1_167
*948 FILLER_1_169
*949 FILLER_1_181
*950 FILLER_1_193
*951 FILLER_1_205
*952 FILLER_1_217
*953 FILLER_1_223
*954 FILLER_1_225
*955 FILLER_1_237
*956 FILLER_1_249
*957 FILLER_1_25
*958 FILLER_1_261
*959 FILLER_1_273
*960 FILLER_1_279
*961 FILLER_1_281
*962 FILLER_1_29
*963 FILLER_1_293
*964 FILLER_1_3
*965 FILLER_1_33
*966 FILLER_1_40
*967 FILLER_1_47
*968 FILLER_1_54
*969 FILLER_1_57
*970 FILLER_1_68
*971 FILLER_1_75
*972 FILLER_1_82
*973 FILLER_1_89
*974 FILLER_1_96
*975 FILLER_20_109
*976 FILLER_20_121
*977 FILLER_20_133
*978 FILLER_20_139
*979 FILLER_20_141
*980 FILLER_20_147
*981 FILLER_20_159
*982 FILLER_20_17
*983 FILLER_20_188
*984 FILLER_20_197
*985 FILLER_20_209
*986 FILLER_20_21
*987 FILLER_20_221
*988 FILLER_20_233
*989 FILLER_20_245
*990 FILLER_20_251
*991 FILLER_20_253
*992 FILLER_20_26
*993 FILLER_20_265
*994 FILLER_20_277
*995 FILLER_20_289
*996 FILLER_20_29
*997 FILLER_20_297
*998 FILLER_20_3
*999 FILLER_20_37
*1000 FILLER_20_50
*1001 FILLER_20_57
*1002 FILLER_20_82
*1003 FILLER_20_85
*1004 FILLER_20_97
*1005 FILLER_21_102
*1006 FILLER_21_107
*1007 FILLER_21_111
*1008 FILLER_21_113
*1009 FILLER_21_120
*1010 FILLER_21_132
*1011 FILLER_21_144
*1012 FILLER_21_15
*1013 FILLER_21_150
*1014 FILLER_21_162
*1015 FILLER_21_169
*1016 FILLER_21_174
*1017 FILLER_21_186
*1018 FILLER_21_198
*1019 FILLER_21_210
*1020 FILLER_21_222
*1021 FILLER_21_225
*1022 FILLER_21_237
*1023 FILLER_21_249
*1024 FILLER_21_261
*1025 FILLER_21_273
*1026 FILLER_21_279
*1027 FILLER_21_28
*1028 FILLER_21_281
*1029 FILLER_21_293
*1030 FILLER_21_3
*1031 FILLER_21_35
*1032 FILLER_21_43
*1033 FILLER_21_51
*1034 FILLER_21_55
*1035 FILLER_21_57
*1036 FILLER_21_65
*1037 FILLER_21_72
*1038 FILLER_21_84
*1039 FILLER_21_94
*1040 FILLER_22_105
*1041 FILLER_22_110
*1042 FILLER_22_117
*1043 FILLER_22_124
*1044 FILLER_22_136
*1045 FILLER_22_141
*1046 FILLER_22_156
*1047 FILLER_22_168
*1048 FILLER_22_175
*1049 FILLER_22_187
*1050 FILLER_22_195
*1051 FILLER_22_197
*1052 FILLER_22_209
*1053 FILLER_22_221
*1054 FILLER_22_233
*1055 FILLER_22_245
*1056 FILLER_22_251
*1057 FILLER_22_253
*1058 FILLER_22_26
*1059 FILLER_22_265
*1060 FILLER_22_277
*1061 FILLER_22_289
*1062 FILLER_22_29
*1063 FILLER_22_297
*1064 FILLER_22_3
*1065 FILLER_22_35
*1066 FILLER_22_42
*1067 FILLER_22_54
*1068 FILLER_22_62
*1069 FILLER_22_74
*1070 FILLER_22_82
*1071 FILLER_22_85
*1072 FILLER_22_97
*1073 FILLER_23_108
*1074 FILLER_23_113
*1075 FILLER_23_132
*1076 FILLER_23_144
*1077 FILLER_23_156
*1078 FILLER_23_16
*1079 FILLER_23_169
*1080 FILLER_23_176
*1081 FILLER_23_188
*1082 FILLER_23_20
*1083 FILLER_23_200
*1084 FILLER_23_212
*1085 FILLER_23_225
*1086 FILLER_23_237
*1087 FILLER_23_249
*1088 FILLER_23_261
*1089 FILLER_23_273
*1090 FILLER_23_279
*1091 FILLER_23_281
*1092 FILLER_23_293
*1093 FILLER_23_3
*1094 FILLER_23_36
*1095 FILLER_23_48
*1096 FILLER_23_57
*1097 FILLER_23_72
*1098 FILLER_23_84
*1099 FILLER_23_9
*1100 FILLER_23_96
*1101 FILLER_24_109
*1102 FILLER_24_117
*1103 FILLER_24_126
*1104 FILLER_24_138
*1105 FILLER_24_141
*1106 FILLER_24_15
*1107 FILLER_24_153
*1108 FILLER_24_157
*1109 FILLER_24_161
*1110 FILLER_24_194
*1111 FILLER_24_197
*1112 FILLER_24_209
*1113 FILLER_24_221
*1114 FILLER_24_233
*1115 FILLER_24_245
*1116 FILLER_24_251
*1117 FILLER_24_253
*1118 FILLER_24_265
*1119 FILLER_24_27
*1120 FILLER_24_277
*1121 FILLER_24_289
*1122 FILLER_24_29
*1123 FILLER_24_297
*1124 FILLER_24_3
*1125 FILLER_24_37
*1126 FILLER_24_45
*1127 FILLER_24_63
*1128 FILLER_24_75
*1129 FILLER_24_8
*1130 FILLER_24_83
*1131 FILLER_24_85
*1132 FILLER_24_97
*1133 FILLER_25_104
*1134 FILLER_25_113
*1135 FILLER_25_122
*1136 FILLER_25_134
*1137 FILLER_25_146
*1138 FILLER_25_154
*1139 FILLER_25_158
*1140 FILLER_25_16
*1141 FILLER_25_165
*1142 FILLER_25_169
*1143 FILLER_25_174
*1144 FILLER_25_181
*1145 FILLER_25_193
*1146 FILLER_25_205
*1147 FILLER_25_217
*1148 FILLER_25_223
*1149 FILLER_25_225
*1150 FILLER_25_237
*1151 FILLER_25_249
*1152 FILLER_25_261
*1153 FILLER_25_273
*1154 FILLER_25_279
*1155 FILLER_25_281
*1156 FILLER_25_293
*1157 FILLER_25_3
*1158 FILLER_25_33
*1159 FILLER_25_45
*1160 FILLER_25_54
*1161 FILLER_25_57
*1162 FILLER_25_68
*1163 FILLER_25_8
*1164 FILLER_25_80
*1165 FILLER_25_92
*1166 FILLER_26_106
*1167 FILLER_26_118
*1168 FILLER_26_12
*1169 FILLER_26_126
*1170 FILLER_26_138
*1171 FILLER_26_141
*1172 FILLER_26_153
*1173 FILLER_26_165
*1174 FILLER_26_169
*1175 FILLER_26_194
*1176 FILLER_26_197
*1177 FILLER_26_209
*1178 FILLER_26_221
*1179 FILLER_26_233
*1180 FILLER_26_245
*1181 FILLER_26_251
*1182 FILLER_26_253
*1183 FILLER_26_26
*1184 FILLER_26_265
*1185 FILLER_26_277
*1186 FILLER_26_289
*1187 FILLER_26_29
*1188 FILLER_26_297
*1189 FILLER_26_3
*1190 FILLER_26_41
*1191 FILLER_26_50
*1192 FILLER_26_62
*1193 FILLER_26_74
*1194 FILLER_26_82
*1195 FILLER_26_85
*1196 FILLER_26_94
*1197 FILLER_27_100
*1198 FILLER_27_113
*1199 FILLER_27_136
*1200 FILLER_27_14
*1201 FILLER_27_148
*1202 FILLER_27_160
*1203 FILLER_27_169
*1204 FILLER_27_192
*1205 FILLER_27_204
*1206 FILLER_27_216
*1207 FILLER_27_225
*1208 FILLER_27_237
*1209 FILLER_27_249
*1210 FILLER_27_261
*1211 FILLER_27_27
*1212 FILLER_27_273
*1213 FILLER_27_279
*1214 FILLER_27_281
*1215 FILLER_27_293
*1216 FILLER_27_3
*1217 FILLER_27_39
*1218 FILLER_27_50
*1219 FILLER_27_57
*1220 FILLER_27_65
*1221 FILLER_27_76
*1222 FILLER_27_88
*1223 FILLER_28_101
*1224 FILLER_28_109
*1225 FILLER_28_121
*1226 FILLER_28_133
*1227 FILLER_28_139
*1228 FILLER_28_141
*1229 FILLER_28_153
*1230 FILLER_28_165
*1231 FILLER_28_177
*1232 FILLER_28_189
*1233 FILLER_28_195
*1234 FILLER_28_197
*1235 FILLER_28_209
*1236 FILLER_28_221
*1237 FILLER_28_233
*1238 FILLER_28_245
*1239 FILLER_28_25
*1240 FILLER_28_251
*1241 FILLER_28_253
*1242 FILLER_28_265
*1243 FILLER_28_277
*1244 FILLER_28_289
*1245 FILLER_28_29
*1246 FILLER_28_297
*1247 FILLER_28_3