*SPEF "ieee 1481-1999"
*DESIGN "femto_top"
*DATE "11:11:11 Fri 11 11, 1111"
*VENDOR "OpenRCX"
*PROGRAM "Parallel Extraction"
*VERSION "1.0"
*DESIGN_FLOW "NAME_SCOPE LOCAL" "PIN_CAP NONE"
*DIVIDER /
*DELIMITER :
*BUS_DELIMITER []
*T_UNIT 1 NS
*C_UNIT 1 PF
*R_UNIT 1 OHM
*L_UNIT 1 HENRY

*NAME_MAP
*1 io_in[0]
*2 io_in[1]
*3 io_in[2]
*4 io_in[3]
*5 io_in[4]
*6 io_in[5]
*7 io_in[6]
*8 io_in[7]
*9 io_out[0]
*10 io_out[1]
*11 io_out[2]
*12 io_out[3]
*13 io_out[4]
*14 io_out[5]
*15 io_out[6]
*16 net8
*19 _000_
*20 _001_
*21 _002_
*22 _003_
*23 _004_
*24 _005_
*25 _006_
*26 _007_
*27 _008_
*28 _009_
*29 _010_
*30 _011_
*31 _012_
*32 _013_
*33 _014_
*34 _015_
*35 _016_
*36 _017_
*37 _018_
*38 _019_
*39 _020_
*40 _021_
*41 _022_
*42 _023_
*43 _024_
*44 _025_
*45 _026_
*46 _027_
*47 _028_
*48 _029_
*49 _030_
*50 _031_
*51 _032_
*52 _033_
*53 _034_
*54 _035_
*55 _036_
*56 _037_
*57 _038_
*58 _039_
*59 _040_
*60 _041_
*61 _042_
*62 _043_
*63 _044_
*64 _045_
*65 _046_
*66 _047_
*67 _048_
*68 _049_
*69 _050_
*70 _051_
*71 _052_
*72 _053_
*73 _054_
*74 _055_
*75 _056_
*76 _057_
*77 _058_
*78 _059_
*79 _060_
*80 _061_
*81 _062_
*82 _063_
*83 _064_
*84 _065_
*85 _066_
*86 _067_
*87 _068_
*88 _069_
*89 _070_
*90 _071_
*91 _072_
*92 _073_
*93 _074_
*94 _075_
*95 _076_
*96 _077_
*97 _078_
*98 _079_
*99 _080_
*100 _081_
*101 _082_
*102 _083_
*103 _084_
*104 _085_
*105 _086_
*106 _087_
*107 _088_
*108 _089_
*109 _090_
*110 _091_
*111 _092_
*112 _093_
*113 _094_
*114 _095_
*115 _096_
*116 _097_
*117 _098_
*118 _099_
*119 _100_
*120 _101_
*121 _102_
*122 _103_
*123 _104_
*124 _105_
*125 _106_
*126 _107_
*127 _108_
*128 _109_
*129 _110_
*130 _111_
*131 _112_
*132 _113_
*133 _114_
*134 _115_
*135 _116_
*136 _117_
*137 _118_
*138 _119_
*139 _120_
*140 _121_
*141 _122_
*142 _123_
*143 _124_
*144 _125_
*145 _126_
*146 _127_
*147 _128_
*148 _129_
*149 _130_
*150 _131_
*151 _132_
*152 _133_
*153 _134_
*154 _135_
*155 _136_
*156 _137_
*157 _138_
*158 _139_
*159 _140_
*160 _141_
*161 _142_
*162 _143_
*163 _144_
*164 _145_
*165 _146_
*166 _147_
*167 _148_
*168 _149_
*169 _150_
*170 _151_
*171 _152_
*172 _153_
*173 _154_
*174 _155_
*175 _156_
*176 _157_
*177 _158_
*178 _159_
*179 _160_
*180 _161_
*181 _162_
*182 _163_
*183 _164_
*184 _165_
*185 _166_
*186 _167_
*187 _168_
*188 _169_
*189 _170_
*190 _171_
*191 _172_
*192 _173_
*193 _174_
*194 _175_
*195 _176_
*196 _177_
*197 _178_
*198 _179_
*199 _180_
*200 _181_
*201 _182_
*202 _183_
*203 _184_
*204 _185_
*205 _186_
*206 _187_
*207 _188_
*208 _189_
*209 _190_
*210 _191_
*211 _192_
*212 _193_
*213 _194_
*214 _195_
*215 _196_
*216 _197_
*217 _198_
*218 _199_
*219 _200_
*220 _201_
*221 _202_
*222 _203_
*223 _204_
*224 _205_
*225 _206_
*226 _207_
*227 _208_
*228 _209_
*229 _210_
*230 _211_
*231 _212_
*232 _213_
*233 _214_
*234 _215_
*235 _216_
*236 _217_
*237 _218_
*238 _219_
*239 _220_
*240 _221_
*241 _222_
*242 _223_
*243 _224_
*244 _225_
*245 _226_
*246 _227_
*247 _228_
*248 _229_
*249 _230_
*250 _231_
*251 _232_
*252 _233_
*253 _234_
*254 _235_
*255 _236_
*256 _237_
*257 _238_
*258 _239_
*259 _240_
*260 _241_
*261 _242_
*262 _243_
*263 _244_
*264 _245_
*265 _246_
*266 _247_
*267 _248_
*268 _249_
*269 _250_
*270 _251_
*271 _252_
*272 _253_
*273 _254_
*274 _255_
*275 _256_
*276 _257_
*277 _258_
*278 _259_
*279 _260_
*280 _261_
*281 _262_
*282 _263_
*283 _264_
*284 _265_
*285 _266_
*286 _267_
*287 _268_
*288 _269_
*289 _270_
*290 _271_
*291 _272_
*292 alu\.acc\[0\]
*293 alu\.acc\[1\]
*294 alu\.acc\[2\]
*295 alu\.acc\[3\]
*296 alu\.op\[0\]
*297 alu\.op\[1\]
*298 alu\.op\[2\]
*299 clknet_0_io_in[0]
*300 clknet_3_0__leaf_io_in[0]
*301 clknet_3_1__leaf_io_in[0]
*302 clknet_3_2__leaf_io_in[0]
*303 clknet_3_3__leaf_io_in[0]
*304 clknet_3_4__leaf_io_in[0]
*305 clknet_3_5__leaf_io_in[0]
*306 clknet_3_6__leaf_io_in[0]
*307 clknet_3_7__leaf_io_in[0]
*308 ibuf\.ibuffer_inst\[0\]\[0\]
*309 ibuf\.ibuffer_inst\[0\]\[1\]
*310 ibuf\.ibuffer_inst\[0\]\[2\]
*311 ibuf\.ibuffer_inst\[0\]\[3\]
*312 ibuf\.ibuffer_inst\[0\]\[4\]
*313 ibuf\.ibuffer_inst\[0\]\[5\]
*314 ibuf\.ibuffer_inst\[0\]\[6\]
*315 ibuf\.ibuffer_inst\[1\]\[0\]
*316 ibuf\.ibuffer_inst\[1\]\[1\]
*317 ibuf\.ibuffer_inst\[1\]\[2\]
*318 ibuf\.ibuffer_inst\[1\]\[3\]
*319 ibuf\.ibuffer_inst\[1\]\[4\]
*320 ibuf\.ibuffer_inst\[1\]\[5\]
*321 ibuf\.ibuffer_inst\[1\]\[6\]
*322 ibuf\.ibuffer_inst\[2\]\[0\]
*323 ibuf\.ibuffer_inst\[2\]\[1\]
*324 ibuf\.ibuffer_inst\[2\]\[2\]
*325 ibuf\.ibuffer_inst\[2\]\[3\]
*326 ibuf\.ibuffer_inst\[2\]\[4\]
*327 ibuf\.ibuffer_inst\[2\]\[5\]
*328 ibuf\.ibuffer_inst\[2\]\[6\]
*329 ibuf\.ibuffer_inst\[3\]\[0\]
*330 ibuf\.ibuffer_inst\[3\]\[1\]
*331 ibuf\.ibuffer_inst\[3\]\[2\]
*332 ibuf\.ibuffer_inst\[3\]\[3\]
*333 ibuf\.ibuffer_inst\[3\]\[4\]
*334 ibuf\.ibuffer_inst\[3\]\[5\]
*335 ibuf\.ibuffer_inst\[3\]\[6\]
*336 ibuf\.ibuffer_inst\[4\]\[0\]
*337 ibuf\.ibuffer_inst\[4\]\[1\]
*338 ibuf\.ibuffer_inst\[4\]\[2\]
*339 ibuf\.ibuffer_inst\[4\]\[3\]
*340 ibuf\.ibuffer_inst\[4\]\[4\]
*341 ibuf\.ibuffer_inst\[4\]\[5\]
*342 ibuf\.ibuffer_inst\[4\]\[6\]
*343 ibuf\.ibuffer_inst\[5\]\[0\]
*344 ibuf\.ibuffer_inst\[5\]\[1\]
*345 ibuf\.ibuffer_inst\[5\]\[2\]
*346 ibuf\.ibuffer_inst\[5\]\[3\]
*347 ibuf\.ibuffer_inst\[5\]\[4\]
*348 ibuf\.ibuffer_inst\[5\]\[5\]
*349 ibuf\.ibuffer_inst\[5\]\[6\]
*350 ibuf\.instr_out\[3\]
*351 ibuf\.instr_out\[4\]
*352 ibuf\.instr_out\[5\]
*353 ibuf\.instr_out\[6\]
*354 ibuf\.rden
*355 mode\[1\]
*356 net1
*357 net2
*358 net3
*359 net4
*360 net5
*361 net6
*362 net7
*363 rf\.regfile\[0\]\[0\]
*364 rf\.regfile\[0\]\[1\]
*365 rf\.regfile\[0\]\[2\]
*366 rf\.regfile\[0\]\[3\]
*367 rf\.regfile\[1\]\[0\]
*368 rf\.regfile\[1\]\[1\]
*369 rf\.regfile\[1\]\[2\]
*370 rf\.regfile\[1\]\[3\]
*371 rf\.regfile\[2\]\[0\]
*372 rf\.regfile\[2\]\[1\]
*373 rf\.regfile\[2\]\[2\]
*374 rf\.regfile\[2\]\[3\]
*375 rf\.regfile\[3\]\[0\]
*376 rf\.regfile\[3\]\[1\]
*377 rf\.regfile\[3\]\[2\]
*378 rf\.regfile\[3\]\[3\]
*379 seg\.value\[0\]
*380 seg\.value\[1\]
*381 seg\.value\[2\]
*382 seg\.value\[3\]
*383 FILLER_0_108
*384 FILLER_0_113
*385 FILLER_0_131
*386 FILLER_0_139
*387 FILLER_0_141
*388 FILLER_0_159
*389 FILLER_0_167
*390 FILLER_0_169
*391 FILLER_0_175
*392 FILLER_0_187
*393 FILLER_0_195
*394 FILLER_0_197
*395 FILLER_0_209
*396 FILLER_0_21
*397 FILLER_0_221
*398 FILLER_0_225
*399 FILLER_0_237
*400 FILLER_0_249
*401 FILLER_0_253
*402 FILLER_0_265
*403 FILLER_0_27
*404 FILLER_0_277
*405 FILLER_0_281
*406 FILLER_0_29
*407 FILLER_0_293
*408 FILLER_0_3
*409 FILLER_0_48
*410 FILLER_0_57
*411 FILLER_0_65
*412 FILLER_0_82
*413 FILLER_0_85
*414 FILLER_0_91
*415 FILLER_10_103
*416 FILLER_10_115
*417 FILLER_10_127
*418 FILLER_10_139
*419 FILLER_10_141
*420 FILLER_10_153
*421 FILLER_10_165
*422 FILLER_10_173
*423 FILLER_10_185
*424 FILLER_10_193
*425 FILLER_10_197
*426 FILLER_10_209
*427 FILLER_10_21
*428 FILLER_10_221
*429 FILLER_10_233
*430 FILLER_10_245
*431 FILLER_10_251
*432 FILLER_10_253
*433 FILLER_10_265
*434 FILLER_10_27
*435 FILLER_10_277
*436 FILLER_10_289
*437 FILLER_10_29
*438 FILLER_10_297
*439 FILLER_10_3
*440 FILLER_10_41
*441 FILLER_10_65
*442 FILLER_10_77
*443 FILLER_10_83
*444 FILLER_10_85
*445 FILLER_11_100
*446 FILLER_11_113
*447 FILLER_11_124
*448 FILLER_11_128
*449 FILLER_11_15
*450 FILLER_11_150
*451 FILLER_11_165
*452 FILLER_11_169
*453 FILLER_11_174
*454 FILLER_11_182
*455 FILLER_11_192
*456 FILLER_11_204
*457 FILLER_11_216
*458 FILLER_11_225
*459 FILLER_11_237
*460 FILLER_11_249
*461 FILLER_11_261
*462 FILLER_11_273
*463 FILLER_11_279
*464 FILLER_11_281
*465 FILLER_11_293
*466 FILLER_11_3
*467 FILLER_11_36
*468 FILLER_11_50
*469 FILLER_11_57
*470 FILLER_11_80
*471 FILLER_12_103
*472 FILLER_12_115
*473 FILLER_12_119
*474 FILLER_12_123
*475 FILLER_12_136
*476 FILLER_12_141
*477 FILLER_12_147
*478 FILLER_12_157
*479 FILLER_12_161
*480 FILLER_12_171
*481 FILLER_12_178
*482 FILLER_12_190
*483 FILLER_12_197
*484 FILLER_12_209
*485 FILLER_12_22
*486 FILLER_12_221
*487 FILLER_12_233
*488 FILLER_12_245
*489 FILLER_12_251
*490 FILLER_12_253
*491 FILLER_12_265
*492 FILLER_12_277
*493 FILLER_12_289
*494 FILLER_12_29
*495 FILLER_12_297
*496 FILLER_12_3
*497 FILLER_12_49
*498 FILLER_12_73
*499 FILLER_12_81
*500 FILLER_12_85
*501 FILLER_13_109
*502 FILLER_13_113
*503 FILLER_13_120
*504 FILLER_13_132
*505 FILLER_13_144
*506 FILLER_13_15
*507 FILLER_13_151
*508 FILLER_13_163
*509 FILLER_13_167
*510 FILLER_13_169
*511 FILLER_13_181
*512 FILLER_13_186
*513 FILLER_13_198
*514 FILLER_13_210
*515 FILLER_13_222
*516 FILLER_13_225
*517 FILLER_13_237
*518 FILLER_13_249
*519 FILLER_13_261
*520 FILLER_13_273
*521 FILLER_13_279
*522 FILLER_13_281
*523 FILLER_13_293
*524 FILLER_13_3
*525 FILLER_13_34
*526 FILLER_13_54
*527 FILLER_13_57
*528 FILLER_13_77
*529 FILLER_13_97
*530 FILLER_14_104
*531 FILLER_14_113
*532 FILLER_14_117
*533 FILLER_14_127
*534 FILLER_14_139
*535 FILLER_14_141
*536 FILLER_14_152
*537 FILLER_14_167
*538 FILLER_14_179
*539 FILLER_14_191
*540 FILLER_14_195
*541 FILLER_14_197
*542 FILLER_14_209
*543 FILLER_14_221
*544 FILLER_14_233
*545 FILLER_14_245
*546 FILLER_14_251
*547 FILLER_14_253
*548 FILLER_14_26
*549 FILLER_14_265
*550 FILLER_14_277
*551 FILLER_14_289
*552 FILLER_14_29
*553 FILLER_14_297
*554 FILLER_14_3
*555 FILLER_14_48
*556 FILLER_14_68
*557 FILLER_14_80
*558 FILLER_14_85
*559 FILLER_14_9
*560 FILLER_15_100
*561 FILLER_15_113
*562 FILLER_15_120
*563 FILLER_15_133
*564 FILLER_15_145
*565 FILLER_15_150
*566 FILLER_15_163
*567 FILLER_15_167
*568 FILLER_15_169
*569 FILLER_15_181
*570 FILLER_15_193
*571 FILLER_15_205
*572 FILLER_15_217
*573 FILLER_15_221
*574 FILLER_15_225
*575 FILLER_15_237
*576 FILLER_15_249
*577 FILLER_15_261
*578 FILLER_15_27
*579 FILLER_15_273
*580 FILLER_15_279
*581 FILLER_15_281
*582 FILLER_15_293
*583 FILLER_15_3
*584 FILLER_15_47
*585 FILLER_15_55
*586 FILLER_15_57
*587 FILLER_15_76
*588 FILLER_15_82
*589 FILLER_16_103
*590 FILLER_16_123
*591 FILLER_16_133
*592 FILLER_16_139
*593 FILLER_16_141
*594 FILLER_16_153
*595 FILLER_16_165
*596 FILLER_16_177
*597 FILLER_16_189
*598 FILLER_16_195
*599 FILLER_16_197
*600 FILLER_16_202
*601 FILLER_16_214
*602 FILLER_16_226
*603 FILLER_16_238
*604 FILLER_16_250
*605 FILLER_16_253
*606 FILLER_16_26
*607 FILLER_16_265
*608 FILLER_16_277
*609 FILLER_16_289
*610 FILLER_16_29
*611 FILLER_16_297
*612 FILLER_16_3
*613 FILLER_16_41
*614 FILLER_16_63
*615 FILLER_16_75
*616 FILLER_16_83
*617 FILLER_16_85
*618 FILLER_16_9
*619 FILLER_17_105
*620 FILLER_17_111
*621 FILLER_17_113
*622 FILLER_17_124
*623 FILLER_17_136
*624 FILLER_17_148
*625 FILLER_17_160
*626 FILLER_17_169
*627 FILLER_17_181
*628 FILLER_17_193
*629 FILLER_17_205
*630 FILLER_17_217
*631 FILLER_17_222
*632 FILLER_17_225
*633 FILLER_17_237
*634 FILLER_17_249
*635 FILLER_17_261
*636 FILLER_17_273
*637 FILLER_17_279
*638 FILLER_17_281
*639 FILLER_17_293
*640 FILLER_17_3
*641 FILLER_17_36
*642 FILLER_17_48
*643 FILLER_17_57
*644 FILLER_17_69
*645 FILLER_17_8
*646 FILLER_17_93
*647 FILLER_18_103
*648 FILLER_18_120
*649 FILLER_18_132
*650 FILLER_18_141
*651 FILLER_18_145
*652 FILLER_18_149
*653 FILLER_18_161
*654 FILLER_18_173
*655 FILLER_18_181
*656 FILLER_18_187
*657 FILLER_18_195
*658 FILLER_18_197
*659 FILLER_18_209
*660 FILLER_18_21
*661 FILLER_18_221
*662 FILLER_18_233
*663 FILLER_18_245
*664 FILLER_18_251
*665 FILLER_18_253
*666 FILLER_18_265
*667 FILLER_18_27
*668 FILLER_18_277
*669 FILLER_18_289
*670 FILLER_18_29
*671 FILLER_18_297
*672 FILLER_18_3
*673 FILLER_18_51
*674 FILLER_18_72
*675 FILLER_18_85
*676 FILLER_19_102
*677 FILLER_19_110
*678 FILLER_19_113
*679 FILLER_19_128
*680 FILLER_19_140
*681 FILLER_19_152
*682 FILLER_19_16
*683 FILLER_19_164
*684 FILLER_19_169
*685 FILLER_19_179
*686 FILLER_19_191
*687 FILLER_19_203
*688 FILLER_19_215
*689 FILLER_19_223
*690 FILLER_19_225
*691 FILLER_19_237
*692 FILLER_19_249
*693 FILLER_19_261
*694 FILLER_19_273
*695 FILLER_19_279
*696 FILLER_19_281
*697 FILLER_19_293
*698 FILLER_19_3
*699 FILLER_19_36
*700 FILLER_19_48
*701 FILLER_19_57
*702 FILLER_19_76
*703 FILLER_19_8
*704 FILLER_19_84
*705 FILLER_1_105
*706 FILLER_1_111
*707 FILLER_1_113
*708 FILLER_1_131
*709 FILLER_1_15
*710 FILLER_1_151
*711 FILLER_1_155
*712 FILLER_1_159
*713 FILLER_1_167
*714 FILLER_1_169
*715 FILLER_1_176
*716 FILLER_1_182
*717 FILLER_1_192
*718 FILLER_1_204
*719 FILLER_1_216
*720 FILLER_1_225
*721 FILLER_1_237
*722 FILLER_1_249
*723 FILLER_1_261
*724 FILLER_1_273
*725 FILLER_1_279
*726 FILLER_1_281
*727 FILLER_1_293
*728 FILLER_1_3
*729 FILLER_1_36
*730 FILLER_1_48
*731 FILLER_1_57
*732 FILLER_1_69
*733 FILLER_1_93
*734 FILLER_20_103
*735 FILLER_20_109
*736 FILLER_20_119
*737 FILLER_20_131
*738 FILLER_20_139
*739 FILLER_20_141
*740 FILLER_20_150
*741 FILLER_20_162
*742 FILLER_20_174
*743 FILLER_20_179
*744 FILLER_20_191
*745 FILLER_20_195
*746 FILLER_20_197
*747 FILLER_20_209
*748 FILLER_20_221
*749 FILLER_20_23
*750 FILLER_20_233
*751 FILLER_20_245
*752 FILLER_20_251
*753 FILLER_20_253
*754 FILLER_20_265
*755 FILLER_20_27
*756 FILLER_20_277
*757 FILLER_20_289
*758 FILLER_20_29
*759 FILLER_20_297
*760 FILLER_20_3
*761 FILLER_20_37
*762 FILLER_20_55
*763 FILLER_20_75
*764 FILLER_20_83
*765 FILLER_20_85
*766 FILLER_21_102
*767 FILLER_21_110
*768 FILLER_21_113
*769 FILLER_21_125
*770 FILLER_21_137
*771 FILLER_21_149
*772 FILLER_21_166
*773 FILLER_21_169
*774 FILLER_21_186
*775 FILLER_21_198
*776 FILLER_21_21
*777 FILLER_21_210
*778 FILLER_21_222
*779 FILLER_21_225
*780 FILLER_21_237
*781 FILLER_21_249
*782 FILLER_21_261
*783 FILLER_21_273
*784 FILLER_21_279
*785 FILLER_21_281
*786 FILLER_21_29
*787 FILLER_21_293
*788 FILLER_21_3
*789 FILLER_21_47
*790 FILLER_21_55
*791 FILLER_21_57
*792 FILLER_21_69
*793 FILLER_21_81
*794 FILLER_21_85
*795 FILLER_22_112
*796 FILLER_22_124
*797 FILLER_22_136
*798 FILLER_22_141
*799 FILLER_22_156
*800 FILLER_22_168
*801 FILLER_22_180
*802 FILLER_22_192
*803 FILLER_22_197
*804 FILLER_22_202
*805 FILLER_22_21
*806 FILLER_22_214
*807 FILLER_22_226
*808 FILLER_22_238
*809 FILLER_22_250
*810 FILLER_22_253
*811 FILLER_22_265
*812 FILLER_22_27
*813 FILLER_22_277
*814 FILLER_22_289
*815 FILLER_22_29
*816 FILLER_22_297
*817 FILLER_22_3
*818 FILLER_22_41
*819 FILLER_22_60
*820 FILLER_22_72
*821 FILLER_22_85
*822 FILLER_22_97
*823 FILLER_23_110
*824 FILLER_23_113
*825 FILLER_23_119
*826 FILLER_23_125
*827 FILLER_23_137
*828 FILLER_23_149
*829 FILLER_23_161
*830 FILLER_23_167
*831 FILLER_23_169
*832 FILLER_23_181
*833 FILLER_23_193
*834 FILLER_23_205
*835 FILLER_23_21
*836 FILLER_23_217
*837 FILLER_23_223
*838 FILLER_23_225
*839 FILLER_23_237
*840 FILLER_23_249
*841 FILLER_23_261
*842 FILLER_23_273
*843 FILLER_23_279
*844 FILLER_23_28
*845 FILLER_23_281
*846 FILLER_23_293
*847 FILLER_23_3
*848 FILLER_23_43
*849 FILLER_23_55
*850 FILLER_23_57
*851 FILLER_23_63
*852 FILLER_23_67
*853 FILLER_23_79
*854 FILLER_23_85
*855 FILLER_23_97
*856 FILLER_24_110
*857 FILLER_24_12
*858 FILLER_24_120
*859 FILLER_24_129
*860 FILLER_24_137
*861 FILLER_24_141
*862 FILLER_24_153
*863 FILLER_24_165
*864 FILLER_24_177
*865 FILLER_24_189
*866 FILLER_24_195
*867 FILLER_24_197
*868 FILLER_24_205
*869 FILLER_24_217
*870 FILLER_24_229
*871 FILLER_24_23
*872 FILLER_24_241
*873 FILLER_24_249
*874 FILLER_24_253
*875 FILLER_24_265
*876 FILLER_24_27
*877 FILLER_24_277
*878 FILLER_24_289
*879 FILLER_24_29
*880 FILLER_24_297
*881 FILLER_24_3
*882 FILLER_24_33
*883 FILLER_24_37
*884 FILLER_24_50
*885 FILLER_24_67
*886 FILLER_24_82
*887 FILLER_24_85
*888 FILLER_24_98
*889 FILLER_25_106
*890 FILLER_25_113
*891 FILLER_25_12
*892 FILLER_25_124
*893 FILLER_25_132
*894 FILLER_25_140
*895 FILLER_25_152
*896 FILLER_25_16
*897 FILLER_25_164
*898 FILLER_25_169
*899 FILLER_25_181
*900 FILLER_25_185
*901 FILLER_25_197
*902 FILLER_25_209
*903 FILLER_25_221
*904 FILLER_25_225
*905 FILLER_25_237
*906 FILLER_25_249
*907 FILLER_25_26
*908 FILLER_25_261
*909 FILLER_25_273
*910 FILLER_25_279
*911 FILLER_25_281
*912 FILLER_25_293
*913 FILLER_25_3
*914 FILLER_25_30
*915 FILLER_25_34
*916 FILLER_25_41
*917 FILLER_25_47
*918 FILLER_25_51
*919 FILLER_25_55
*920 FILLER_25_57
*921 FILLER_25_61
*922 FILLER_25_65
*923 FILLER_25_78
*924 FILLER_25_8
*925 FILLER_25_89
*926 FILLER_26_10
*927 FILLER_26_108
*928 FILLER_26_120
*929 FILLER_26_132
*930 FILLER_26_141
*931 FILLER_26_153
*932 FILLER_26_165
*933 FILLER_26_17
*934 FILLER_26_177
*935 FILLER_26_189
*936 FILLER_26_195
*937 FILLER_26_197
*938 FILLER_26_209
*939 FILLER_26_221
*940 FILLER_26_233
*941 FILLER_26_245
*942 FILLER_26_25
*943 FILLER_26_251
*944 FILLER_26_253
*945 FILLER_26_269
*946 FILLER_26_281
*947 FILLER_26_29
*948 FILLER_26_293
*949 FILLER_26_3
*950 FILLER_26_40
*951 FILLER_26_44
*952 FILLER_26_48
*953 FILLER_26_55
*954 FILLER_26_62
*955 FILLER_26_74
*956 FILLER_26_82
*957 FILLER_26_85
*958 FILLER_26_96
*959 FILLER_27_104
*960 FILLER_27_113
*961 FILLER_27_121
*962 FILLER_27_127
*963 FILLER_27_139
*964 FILLER_27_14
*965 FILLER_27_151
*966 FILLER_27_163
*967 FILLER_27_167
*968 FILLER_27_169
*969 FILLER_27_181
*970 FILLER_27_193
*971 FILLER_27_205
*972 FILLER_27_21
*973 FILLER_27_217
*974 FILLER_27_223
*975 FILLER_27_225
*976 FILLER_27_237
*977 FILLER_27_249
*978 FILLER_27_261
*979 FILLER_27_273
*980 FILLER_27_279
*981 FILLER_27_281
*982 FILLER_27_29
*983 FILLER_27_293
*984 FILLER_27_3
*985 FILLER_27_37
*986 FILLER_27_50
*987 FILLER_27_57
*988 FILLER_27_68
*989 FILLER_27_80
*990 FILLER_27_92
*991 FILLER_28_109
*992 FILLER_28_120
*993 FILLER_28_128
*994 FILLER_28_138
*995 FILLER_28_141
*996 FILLER_28_149
*997 FILLER_28_159
*998 FILLER_28_171
*999 FILLER_28_183
*1000 FILLER_28_195
*1001 FILLER_28_197
*1002 FILLER_28_209
*1003 FILLER_28_221
*1004 FILLER_28_233
*1005 FILLER_28_245
*1006 FILLER_28_251
*1007 FILLER_28_253
*1008 FILLER_28_26
*1009 FILLER_28_265
*1010 FILLER_28_277
*1011 FILLER_28_289
*1012 FILLER_28_29
*1013 FILLER_28_297
*1014 FILLER_28_3
*1015 FILLER_28_35
*1016 FILLER_28_39
*1017 FILLER_28_46
*1018 FILLER_28_58
*1019 FILLER_28_7
*1020 FILLER_28_70
*1021 FILLER_28_82
*1022 FILLER_28_85
*1023 FILLER_28_97
*1024 FILLER_29_10
*1025 FILLER_29_105
*1026 FILLER_29_111
*1027 FILLER_29_113
*1028 FILLER_29_128
*1029 FILLER_29_136
*1030 FILLER_29_143
*1031 FILLER_29_155
*1032 FILLER_29_167
*1033 FILLER_29_169
*1034 FILLER_29_17
*1035 FILLER_29_181
*1036 FILLER_29_193
*1037 FILLER_29_205
*1038 FILLER_29_217
*1039 FILLER_29_223
*1040 FILLER_29_225
*1041 FILLER_29_237
*1042 FILLER_29_249
*1043 FILLER_29_261
*1044 FILLER_29_273
*1045 FILLER_29_279
*1046 FILLER_29_281
*1047 FILLER_29_29
*1048 FILLER_29_293
*1049 FILLER_29_3
*1050 FILLER_29_37
*1051 FILLER_29_47
*1052 FILLER_29_55
*1053 FILLER_29_57
*1054 FILLER_29_68
*1055 FILLER_29_80
*1056 FILLER_29_88
*1057 FILLER_2_103
*1058 FILLER_2_123
*1059 FILLER_2_132
*1060 FILLER_2_141
*1061 FILLER_2_153
*1062 FILLER_2_165
*1063 FILLER_2_177
*1064 FILLER_2_189
*1065 FILLER_2_195
*1066 FILLER_2_197
*1067 FILLER_2_202
*1068 FILLER_2_214
*1069 FILLER_2_226
*1070 FILLER_2_238
*1071 FILLER_2_250
*1072 FILLER_2_253
*1073 FILLER_2_26
*1074 FILLER_2_265
*1075 FILLER_2_277
*1076 FILLER_2_289
*1077 FILLER_2_29
*1078 FILLER_2_297
*1079 FILLER_2_3
*1080 FILLER_2_41
*1081 FILLER_2_45
*1082 FILLER_2_63
*1083 FILLER_2_75
*1084 FILLER_2_83
*1085 FILLER_2_85
*1086 FILLER_2_9
*1087 FILLER_30_108
*1088 FILLER_30_112
*1089 FILLER_30_131
*1090 FILLER_30_139
*1091 FILLER_30_14
*1092 FILLER_30_141
*1093 FILLER_30_153
*1094 FILLER_30_165
*1095 FILLER_30_177
*1096 FILLER_30_189
*1097 FILLER_30_195
*1098 FILLER_30_197
*1099 FILLER_30_209
*1100 FILLER_30_221
*1101 FILLER_30_233
*1102 FILLER_30_245
*1103 FILLER_30_251
*1104 FILLER_30_253
*1105 FILLER_30_26
*1106 FILLER_30_265
*1107 FILLER_30_277
*1108 FILLER_30_289
*1109 FILLER_30_29
*1110 FILLER_30_297
*1111 FILLER_30_3
*1112 FILLER_30_40
*1113 FILLER_30_48
*1114 FILLER_30_52
*1115 FILLER_30_73
*1116 FILLER_30_81
*1117 FILLER_30_85
*1118 FILLER_30_96
*1119 FILLER_31_106
*1120 FILLER_31_113
*1121 FILLER_31_125
*1122 FILLER_31_137
*1123 FILLER_31_149
*1124 FILLER_31_161
*1125 FILLER_31_167
*1126 FILLER_31_169
*1127 FILLER_31_181
*1128 FILLER_31_193
*1129 FILLER_31_205
*1130 FILLER_31_217
*1131 FILLER_31_223
*1132 FILLER_31_225
*1133 FILLER_31_237
*1134 FILLER_31_24
*1135 FILLER_31_249
*1136 FILLER_31_261
*1137 FILLER_31_273
*1138 FILLER_31_279
*1139 FILLER_31_281
*1140 FILLER_31_293
*1141 FILLER_31_3
*1142 FILLER_31_30
*1143 FILLER_31_40
*1144 FILLER_31_52
*1145 FILLER_31_57
*1146 FILLER_31_63
*1147 FILLER_31_75
*1148 FILLER_31_90
*1149 FILLER_31_96
*1150 FILLER_32_109
*1151 FILLER_32_121
*1152 FILLER_32_138
*1153 FILLER_32_141
*1154 FILLER_32_15
*1155 FILLER_32_153
*1156 FILLER_32_165
*1157 FILLER_32_177
*1158 FILLER_32_189
*1159 FILLER_32_195
*1160 FILLER_32_197
*1161 FILLER_32_209
*1162 FILLER_32_221
*1163 FILLER_32_233
*1164 FILLER_32_24
*1165 FILLER_32_245
*1166 FILLER_32_251
*1167 FILLER_32_253
*1168 FILLER_32_265
*1169 FILLER_32_277
*1170 FILLER_32_289
*1171 FILLER_32_29
*1172 FILLER_32_297
*1173 FILLER_32_3
*1174 FILLER_32_33
*1175 FILLER_32_40
*1176 FILLER_32_46
*1177 FILLER_32_56
*1178 FILLER_32_71
*1179 FILLER_32_78
*1180 FILLER_32_85
*1181 FILLER_32_97
*1182 FILLER_33_108
*1183 FILLER_33_113
*1184 FILLER_33_118
*1185 FILLER_33_130
*1186 FILLER_33_142
*1187 FILLER_33_154
*1188 FILLER_33_166
*1189 FILLER_33_169
*1190 FILLER_33_176
*1191 FILLER_33_188
*1192 FILLER_33_200
*1193 FILLER_33_21
*1194 FILLER_33_212
*1195 FILLER_33_225
*1196 FILLER_33_237
*1197 FILLER_33_249
*1198 FILLER_33_261
*1199 FILLER_33_273
*1200 FILLER_33_279
*1201 FILLER_33_281
*1202 FILLER_33_293
*1203 FILLER_33_3
*1204 FILLER_33_32
*1205 FILLER_33_44
*1206 FILLER_33_57
*1207 FILLER_33_69
*1208 FILLER_33_84
*1209 FILLER_33_96
*1210 FILLER_34_109
*1211 FILLER_34_121
*1212 FILLER_34_133
*1213 FILLER_34_139
*1214 FILLER_34_141
*1215 FILLER_34_15
*1216 FILLER_34_153
*1217 FILLER_34_165
*1218 FILLER_34_177
*1219 FILLER_34_189
*1220 FILLER_34_195
*1221 FILLER_34_197
*1222 FILLER_34_209
*1223 FILLER_34_221
*1224 FILLER_34_233
*1225 FILLER_34_245
*1226 FILLER_34_251
*1227 FILLER_34_253
*1228 FILLER_34_26
*1229 FILLER_34_265
*1230 FILLER_34_277
*1231 FILLER_34_289
*1232 FILLER_34_29
*1233 FILLER_34_297
*1234 FILLER_34_3
*1235 FILLER_34_40
*1236 FILLER_34_51
*1237 FILLER_34_57
*1238 FILLER_34_63
*1239 FILLER_34_75
*1240 FILLER_34_83
*1241 FILLER_34_85
*1242 FILLER_34_97
*1243 FILLER_35_108
*1244 FILLER_35_113
*1245 FILLER_35_119
*1246 FILLER_35_133
*1247 FILLER_35_143
*1248 FILLER_35_155
*1249 FILLER_35_163
*1250 FILLER_35_167
*1251 FILLER_35_169
*1252 FILLER_35_174
*1253 FILLER_35_186
*1254 FILLER_35_198
*1255 FILLER_35_21
*1256 FILLER_35_210
*1257 FILLER_35_222
*1258 FILLER_35_225
*1259 FILLER_35_237
*1260 FILLER_35_249
*1261 FILLER_35_261
*1262 FILLER_35_273
*1263 FILLER_35_279
*1264 FILLER_35_281
*1265 FILLER_35_293
*1266 FILLER_35_3
*1267 FILLER_35_33
*1268 FILLER_35_43
*1269 FILLER_35_55
*1270 FILLER_35_57
*1271 FILLER_35_62
*1272 FILLER_35_70
*1273 FILLER_35_76
*1274 FILLER_35_84
*1275 FILLER_35_9
*1276 FILLER_35_96
*1277 FILLER_36_109
*1278 FILLER_36_121
*1279 FILLER_36_133
*1280 FILLER_36_139
*1281 FILLER_36_141
*1282 FILLER_36_149
*1283 FILLER_36_155
*1284 FILLER_36_16
*1285 FILLER_36_163
*1286 FILLER_36_171
*1287 FILLER_36_183
*1288 FILLER_36_195
*1289 FILLER_36_197
*1290 FILLER_36_209
*1291 FILLER_36_221
*1292 FILLER_36_233
*1293 FILLER_36_245
*1294 FILLER_36_251
*1295 FILLER_36_253
*1296 FILLER_36_265
*1297 FILLER_36_277
*1298 FILLER_36_289
*1299 FILLER_36_29
*1300 FILLER_36_297
*1301 FILLER_36_3
*1302 FILLER_36_41
*1303 FILLER_36_47
*1304 FILLER_36_51
*1305 FILLER_36_58
*1306 FILLER_36_69
*1307 FILLER_36_82
*1308 FILLER_36_85
*1309 FILLER_36_97
*1310 FILLER_37_105
*1311 FILLER_37_111
*1312 FILLER_37_113
*1313 FILLER_37_125
*1314 FILLER_37_135
*1315 FILLER_37_147
*1316 FILLER_37_15
*1317 FILLER_37_159
*1318 FILLER_37_167
*1319 FILLER_37_169
*1320 FILLER_37_181
*1321 FILLER_37_193
*1322 FILLER_37_205
*1323 FILLER_37_21
*1324 FILLER_37_217
*1325 FILLER_37_223
*1326 FILLER_37_225
*1327 FILLER_37_237
*1328 FILLER_37_249
*1329 FILLER_37_261
*1330 FILLER_37_273
*1331 FILLER_37_279
*1332 FILLER_37_281
*1333 FILLER_37_29
*1334 FILLER_37_293
*1335 FILLER_37_3
*1336 FILLER_37_42
*1337 FILLER_37_50
*1338 FILLER_37_57
*1339 FILLER_37_69
*1340 FILLER_37_75
*1341 FILLER_37_85
*1342 FILLER_37_94
*1343 FILLER_38_10
*1344 FILLER_38_109
*1345 FILLER_38_119
*1346 FILLER_38_131
*1347 FILLER_38_139
*1348 FILLER_38_141
*1349 FILLER_38_150
*1350 FILLER_38_162
*1351 FILLER_38_166
*1352 FILLER_38_172
*1353 FILLER_38_184
*1354 FILLER_38_197
*1355 FILLER_38_209
*1356 FILLER_38_22
*1357 FILLER_38_221
*1358 FILLER_38_233
*1359 FILLER_38_245
*1360 FILLER_38_251
*1361 FILLER_38_253
*1362 FILLER_38_265
*1363 FILLER_38_277
*1364 FILLER_38_289
*1365 FILLER_38_29
*1366 FILLER_38_297
*1367 FILLER_38_3
*1368 FILLER_38_41
*1369 FILLER_38_49
*1370 FILLER_38_54
*1371 FILLER_38_66
*1372 FILLER_38_73
*1373 FILLER_38_81
*1374 FILLER_38_85
*1375 FILLER_38_97
*1376 FILLER_39_10
*1377 FILLER_39_106
*1378 FILLER_39_110
*1379 FILLER_39_113
*1380 FILLER_39_117
*1381 FILLER_39_127
*1382 FILLER_39_139
*1383 FILLER_39_147
*1384 FILLER_39_153
*1385 FILLER_39_160
*1386 FILLER_39_169
*1387 FILLER_39_181
*1388 FILLER_39_193
*1389 FILLER_39_205
*1390 FILLER_39_217
*1391 FILLER_39_223
*1392 FILLER_39_225
*1393 FILLER_39_237
*1394 FILLER_39_249
*1395 FILLER_39_261
*1396 FILLER_39_27
*1397 FILLER_39_273
*1398 FILLER_39_279
*1399 FILLER_39_281
*1400 FILLER_39_293
*1401 FILLER_39_3
*1402 FILLER_39_39
*1403 FILLER_39_51
*1404 FILLER_39_55
*1405 FILLER_39_57
*1406 FILLER_39_69
*1407 FILLER_39_81
*1408 FILLER_39_89
*1409 FILLER_39_98
*1410 FILLER_3_106
*1411 FILLER_3_113
*1412 FILLER_3_131
*1413 FILLER_3_151
*1414 FILLER_3_163
*1415 FILLER_3_167
*1416 FILLER_3_169
*1417 FILLER_3_17
*1418 FILLER_3_181
*1419 FILLER_3_193
*1420 FILLER_3_205
*1421 FILLER_3_213
*1422 FILLER_3_217
*1423 FILLER_3_223
*1424 FILLER_3_225
*1425 FILLER_3_237
*1426 FILLER_3_249
*1427 FILLER_3_261
*1428 FILLER_3_273
*1429 FILLER_3_279
*1430 FILLER_3_281
*1431 FILLER_3_293
*1432 FILLER_3_3
*1433 FILLER_3_34
*1434 FILLER_3_54
*1435 FILLER_3_57
*1436 FILLER_3_69
*1437 FILLER_3_86
*1438 FILLER_3_9
*1439 FILLER_40_101
*1440 FILLER_40_109
*1441 FILLER_40_113
*1442 FILLER_40_119
*1443 FILLER_40_131
*1444 FILLER_40_136
*1445 FILLER_40_141
*1446 FILLER_40_145
*1447 FILLER_40_15
*1448 FILLER_40_154
*1449 FILLER_40_170
*1450 FILLER_40_187
*1451 FILLER_40_195
*1452 FILLER_40_197
*1453 FILLER_40_209
*1454 FILLER_40_221
*1455 FILLER_40_233
*1456 FILLER_40_245
*1457 FILLER_40_251
*1458 FILLER_40_253
*1459 FILLER_40_265
*1460 FILLER_40_27
*1461 FILLER_40_277
*1462 FILLER_40_289
*1463 FILLER_40_29
*1464 FILLER_40_297
*1465 FILLER_40_3
*1466 FILLER_40_33
*1467 FILLER_40_43
*1468 FILLER_40_49
*1469 FILLER_40_59
*1470 FILLER_40_71
*1471 FILLER_40_82
*1472 FILLER_40_85
*1473 FILLER_40_97
*1474 FILLER_41_104
*1475 FILLER_41_11
*1476 FILLER_41_113
*1477 FILLER_41_121
*1478 FILLER_41_128
*1479 FILLER_41_140
*1480 FILLER_41_153
*1481 FILLER_41_165
*1482 FILLER_41_169
*1483 FILLER_41_188
*1484 FILLER_41_200
*1485 FILLER_41_212
*1486 FILLER_41_225
*1487 FILLER_41_237
*1488 FILLER_41_24
*1489 FILLER_41_249
*1490 FILLER_41_261
*1491 FILLER_41_273
*1492 FILLER_41_279
*1493 FILLER_41_281
*1494 FILLER_41_293
*1495 FILLER_41_3
*1496 FILLER_41_38
*1497 FILLER_41_50
*1498 FILLER_41_54
*1499 FILLER_41_57
*1500 FILLER_41_65
*1501 FILLER_41_7
*1502 FILLER_41_75
*1503 FILLER_41_83
*1504 FILLER_41_91
*1505 FILLER_42_102
*1506 FILLER_42_117
*1507 FILLER_42_126
*1508 FILLER_42_134
*1509 FILLER_42_14
*1510 FILLER_42_141
*1511 FILLER_42_153
*1512 FILLER_42_170
*1513 FILLER_42_182
*1514 FILLER_42_194
*1515 FILLER_42_197
*1516 FILLER_42_209
*1517 FILLER_42_221
*1518 FILLER_42_233
*1519 FILLER_42_245
*1520 FILLER_42_251
*1521 FILLER_42_253
*1522 FILLER_42_26
*1523 FILLER_42_265
*1524 FILLER_42_277
*1525 FILLER_42_289
*1526 FILLER_42_29
*1527 FILLER_42_297
*1528 FILLER_42_3
*1529 FILLER_42_33
*1530 FILLER_42_37
*1531 FILLER_42_49
*1532 FILLER_42_61
*1533 FILLER_42_73
*1534 FILLER_42_82
*1535 FILLER_42_85
*1536 FILLER_42_90
*1537 FILLER_42_94
*1538 FILLER_43_106
*1539 FILLER_43_113
*1540 FILLER_43_125
*1541 FILLER_43_130
*1542 FILLER_43_143
*1543 FILLER_43_15
*1544 FILLER_43_155
*1545 FILLER_43_167
*1546 FILLER_43_169
*1547 FILLER_43_181
*1548 FILLER_43_193
*1549 FILLER_43_20
*1550 FILLER_43_205
*1551 FILLER_43_217
*1552 FILLER_43_223
*1553 FILLER_43_225
*1554 FILLER_43_237
*1555 FILLER_43_24
*1556 FILLER_43_249
*1557 FILLER_43_261
*1558 FILLER_43_273
*1559 FILLER_43_279
*1560 FILLER_43_281
*1561 FILLER_43_293
*1562 FILLER_43_3
*1563 FILLER_43_34
*1564 FILLER_43_42
*1565 FILLER_43_54
*1566 FILLER_43_57
*1567 FILLER_43_62
*1568 FILLER_43_75
*1569 FILLER_43_87
*1570 FILLER_43_96
*1571 FILLER_44_10
*1572 FILLER_44_102
*1573 FILLER_44_115
*1574 FILLER_44_127
*1575 FILLER_44_138
*1576 FILLER_44_141
*1577 FILLER_44_147
*1578 FILLER_44_172
*1579 FILLER_44_184
*1580 FILLER_44_197
*1581 FILLER_44_209
*1582 FILLER_44_22
*1583 FILLER_44_221
*1584 FILLER_44_233
*1585 FILLER_44_245
*1586 FILLER_44_251
*1587 FILLER_44_253
*1588 FILLER_44_265
*1589 FILLER_44_277
*1590 FILLER_44_289
*1591 FILLER_44_29
*1592 FILLER_44_297
*1593 FILLER_44_3
*1594 FILLER_44_37
*1595 FILLER_44_44
*1596 FILLER_44_56
*1597 FILLER_44_68
*1598 FILLER_44_80
*1599 FILLER_44_85
*1600 FILLER_44_97
*1601 FILLER_45_11
*1602 FILLER_45_110
*1603 FILLER_45_113
*1604 FILLER_45_117
*1605 FILLER_45_126
*1606 FILLER_45_134
*1607 FILLER_45_140
*1608 FILLER_45_152
*1609 FILLER_45_164
*1610 FILLER_45_169
*1611 FILLER_45_181
*1612 FILLER_45_193
*1613 FILLER_45_205
*1614 FILLER_45_217
*1615 FILLER_45_223
*1616 FILLER_45_225
*1617 FILLER_45_237
*1618 FILLER_45_24
*1619 FILLER_45_249
*1620 FILLER_45_261
*1621 FILLER_45_273
*1622 FILLER_45_279
*1623 FILLER_45_281
*1624 FILLER_45_293
*1625 FILLER_45_3
*1626 FILLER_45_36
*1627 FILLER_45_48
*1628 FILLER_45_57
*1629 FILLER_45_70
*1630 FILLER_45_82
*1631 FILLER_45_90
*1632 FILLER_45_96
*1633 FILLER_46_105
*1634 FILLER_46_110
*1635 FILLER_46_119
*1636 FILLER_46_136
*1637 FILLER_46_14
*1638 FILLER_46_141
*1639 FILLER_46_153
*1640 FILLER_46_161
*1641 FILLER_46_171
*1642 FILLER_46_179
*1643 FILLER_46_184