*SPEF "ieee 1481-1999"
*DESIGN "flygoat_tt02_play_tune"
*DATE "11:11:11 Fri 11 11, 1111"
*VENDOR "OpenRCX"
*PROGRAM "Parallel Extraction"
*VERSION "1.0"
*DESIGN_FLOW "NAME_SCOPE LOCAL" "PIN_CAP NONE"
*DIVIDER /
*DELIMITER :
*BUS_DELIMITER []
*T_UNIT 1 NS
*C_UNIT 1 PF
*R_UNIT 1 OHM
*L_UNIT 1 HENRY

*NAME_MAP
*1 io_in[0]
*2 io_in[1]
*3 io_in[2]
*4 io_in[3]
*5 io_in[4]
*6 io_in[5]
*7 io_in[6]
*8 io_in[7]
*9 net2
*10 net16
*11 io_out[2]
*12 io_out[3]
*13 io_out[4]
*14 io_out[5]
*15 net3
*16 net4
*19 _000_
*20 _001_
*21 _002_
*22 _003_
*23 _004_
*24 _005_
*25 _006_
*26 _007_
*27 _008_
*28 _009_
*29 _010_
*30 _011_
*31 _012_
*32 _013_
*33 _014_
*34 _015_
*35 _027_
*36 _028_
*37 _029_
*38 _030_
*39 _031_
*40 _032_
*41 _033_
*42 _034_
*43 _035_
*44 _036_
*45 _037_
*46 _038_
*47 _039_
*48 _040_
*49 _041_
*50 _042_
*51 _043_
*52 _044_
*53 _045_
*54 _046_
*55 _047_
*56 _048_
*57 _049_
*58 _050_
*59 _051_
*60 _052_
*61 _053_
*62 _054_
*63 _055_
*64 _056_
*65 _057_
*66 _058_
*67 _059_
*68 _060_
*69 _061_
*70 _062_
*71 _063_
*72 _064_
*73 _065_
*74 _066_
*75 _067_
*76 _068_
*77 _069_
*78 _070_
*79 _071_
*80 _072_
*81 _073_
*82 _074_
*83 _075_
*84 _076_
*85 _077_
*86 _078_
*87 _079_
*88 clknet_0_io_in[0]
*89 clknet_1_0__leaf_io_in[0]
*90 clknet_1_1__leaf_io_in[0]
*91 cnt\[0\]
*92 cnt\[10\]
*93 cnt\[11\]
*94 cnt\[12\]
*95 cnt\[13\]
*96 cnt\[14\]
*97 cnt\[15\]
*98 cnt\[16\]
*99 cnt\[17\]
*100 cnt\[18\]
*101 cnt\[19\]
*102 cnt\[1\]
*103 cnt\[20\]
*104 cnt\[21\]
*105 cnt\[22\]
*106 cnt\[23\]
*107 cnt\[24\]
*108 cnt\[2\]
*109 cnt\[3\]
*110 cnt\[4\]
*111 cnt\[5\]
*112 cnt\[6\]
*113 cnt\[7\]
*114 cnt\[8\]
*115 cnt\[9\]
*116 led_cnt\[0\]
*117 led_cnt\[1\]
*118 net1
*119 net10
*120 net11
*121 net12
*122 net13
*123 net14
*124 net15
*125 net5
*126 net6
*127 net7
*128 net8
*129 net9
*130 FILLER_0_109
*131 FILLER_0_113
*132 FILLER_0_125
*133 FILLER_0_137
*134 FILLER_0_14
*135 FILLER_0_141
*136 FILLER_0_153
*137 FILLER_0_165
*138 FILLER_0_169
*139 FILLER_0_181
*140 FILLER_0_193
*141 FILLER_0_197
*142 FILLER_0_209
*143 FILLER_0_21
*144 FILLER_0_221
*145 FILLER_0_225
*146 FILLER_0_237
*147 FILLER_0_249
*148 FILLER_0_253
*149 FILLER_0_265
*150 FILLER_0_27
*151 FILLER_0_277
*152 FILLER_0_281
*153 FILLER_0_29
*154 FILLER_0_293
*155 FILLER_0_3
*156 FILLER_0_34
*157 FILLER_0_41
*158 FILLER_0_53
*159 FILLER_0_57
*160 FILLER_0_69
*161 FILLER_0_81
*162 FILLER_0_85
*163 FILLER_0_97
*164 FILLER_10_109
*165 FILLER_10_121
*166 FILLER_10_133
*167 FILLER_10_139
*168 FILLER_10_141
*169 FILLER_10_153
*170 FILLER_10_165
*171 FILLER_10_177
*172 FILLER_10_189
*173 FILLER_10_195
*174 FILLER_10_197
*175 FILLER_10_209
*176 FILLER_10_21
*177 FILLER_10_221
*178 FILLER_10_233
*179 FILLER_10_245
*180 FILLER_10_251
*181 FILLER_10_253
*182 FILLER_10_265
*183 FILLER_10_27
*184 FILLER_10_277
*185 FILLER_10_289
*186 FILLER_10_29
*187 FILLER_10_297
*188 FILLER_10_3
*189 FILLER_10_37
*190 FILLER_10_41
*191 FILLER_10_47
*192 FILLER_10_54
*193 FILLER_10_58
*194 FILLER_10_62
*195 FILLER_10_74
*196 FILLER_10_82
*197 FILLER_10_85
*198 FILLER_10_97
*199 FILLER_11_106
*200 FILLER_11_113
*201 FILLER_11_12
*202 FILLER_11_125
*203 FILLER_11_137
*204 FILLER_11_149
*205 FILLER_11_161
*206 FILLER_11_167
*207 FILLER_11_169
*208 FILLER_11_181
*209 FILLER_11_193
*210 FILLER_11_205
*211 FILLER_11_217
*212 FILLER_11_223
*213 FILLER_11_225
*214 FILLER_11_237
*215 FILLER_11_249
*216 FILLER_11_261
*217 FILLER_11_273
*218 FILLER_11_279
*219 FILLER_11_281
*220 FILLER_11_293
*221 FILLER_11_3
*222 FILLER_11_36
*223 FILLER_11_47
*224 FILLER_11_54
*225 FILLER_11_57
*226 FILLER_11_70
*227 FILLER_11_82
*228 FILLER_11_94
*229 FILLER_12_109
*230 FILLER_12_121
*231 FILLER_12_133
*232 FILLER_12_139
*233 FILLER_12_141
*234 FILLER_12_153
*235 FILLER_12_165
*236 FILLER_12_177
*237 FILLER_12_189
*238 FILLER_12_195
*239 FILLER_12_197
*240 FILLER_12_209
*241 FILLER_12_21
*242 FILLER_12_221
*243 FILLER_12_233
*244 FILLER_12_245
*245 FILLER_12_251
*246 FILLER_12_253
*247 FILLER_12_265
*248 FILLER_12_27
*249 FILLER_12_277
*250 FILLER_12_289
*251 FILLER_12_29
*252 FILLER_12_297
*253 FILLER_12_3
*254 FILLER_12_36
*255 FILLER_12_60
*256 FILLER_12_71
*257 FILLER_12_83
*258 FILLER_12_85
*259 FILLER_12_97
*260 FILLER_13_11
*261 FILLER_13_111
*262 FILLER_13_113
*263 FILLER_13_125
*264 FILLER_13_137
*265 FILLER_13_149
*266 FILLER_13_161
*267 FILLER_13_167
*268 FILLER_13_169
*269 FILLER_13_181
*270 FILLER_13_19
*271 FILLER_13_193
*272 FILLER_13_205
*273 FILLER_13_217
*274 FILLER_13_223
*275 FILLER_13_225
*276 FILLER_13_237
*277 FILLER_13_249
*278 FILLER_13_261
*279 FILLER_13_273
*280 FILLER_13_279
*281 FILLER_13_28
*282 FILLER_13_281
*283 FILLER_13_293
*284 FILLER_13_3
*285 FILLER_13_50
*286 FILLER_13_57
*287 FILLER_13_7
*288 FILLER_13_75
*289 FILLER_13_87
*290 FILLER_13_99
*291 FILLER_14_109
*292 FILLER_14_11
*293 FILLER_14_121
*294 FILLER_14_133
*295 FILLER_14_139
*296 FILLER_14_141
*297 FILLER_14_153
*298 FILLER_14_165
*299 FILLER_14_177
*300 FILLER_14_189
*301 FILLER_14_195
*302 FILLER_14_197
*303 FILLER_14_209
*304 FILLER_14_221
*305 FILLER_14_233
*306 FILLER_14_24
*307 FILLER_14_245
*308 FILLER_14_251
*309 FILLER_14_253
*310 FILLER_14_265
*311 FILLER_14_277
*312 FILLER_14_289
*313 FILLER_14_29
*314 FILLER_14_297
*315 FILLER_14_3
*316 FILLER_14_47
*317 FILLER_14_58
*318 FILLER_14_7
*319 FILLER_14_70
*320 FILLER_14_82
*321 FILLER_14_85
*322 FILLER_14_97
*323 FILLER_15_101
*324 FILLER_15_109
*325 FILLER_15_113
*326 FILLER_15_125
*327 FILLER_15_137
*328 FILLER_15_149
*329 FILLER_15_161
*330 FILLER_15_167
*331 FILLER_15_169
*332 FILLER_15_181
*333 FILLER_15_193
*334 FILLER_15_205
*335 FILLER_15_21
*336 FILLER_15_217
*337 FILLER_15_223
*338 FILLER_15_225
*339 FILLER_15_237
*340 FILLER_15_249
*341 FILLER_15_261
*342 FILLER_15_273
*343 FILLER_15_279
*344 FILLER_15_28
*345 FILLER_15_281
*346 FILLER_15_293
*347 FILLER_15_3
*348 FILLER_15_39
*349 FILLER_15_54
*350 FILLER_15_57
*351 FILLER_15_65
*352 FILLER_15_77
*353 FILLER_15_89
*354 FILLER_16_109
*355 FILLER_16_11
*356 FILLER_16_121
*357 FILLER_16_133
*358 FILLER_16_139
*359 FILLER_16_141
*360 FILLER_16_153
*361 FILLER_16_165
*362 FILLER_16_177
*363 FILLER_16_18
*364 FILLER_16_189
*365 FILLER_16_195
*366 FILLER_16_197
*367 FILLER_16_209
*368 FILLER_16_221
*369 FILLER_16_233
*370 FILLER_16_245
*371 FILLER_16_251
*372 FILLER_16_253
*373 FILLER_16_26
*374 FILLER_16_265
*375 FILLER_16_277
*376 FILLER_16_289
*377 FILLER_16_29
*378 FILLER_16_297
*379 FILLER_16_3
*380 FILLER_16_38
*381 FILLER_16_42
*382 FILLER_16_50
*383 FILLER_16_70
*384 FILLER_16_82
*385 FILLER_16_85
*386 FILLER_16_97
*387 FILLER_17_110
*388 FILLER_17_113
*389 FILLER_17_125
*390 FILLER_17_137
*391 FILLER_17_149
*392 FILLER_17_16
*393 FILLER_17_161
*394 FILLER_17_167
*395 FILLER_17_169
*396 FILLER_17_181
*397 FILLER_17_193
*398 FILLER_17_205
*399 FILLER_17_217
*400 FILLER_17_223
*401 FILLER_17_225
*402 FILLER_17_237
*403 FILLER_17_249
*404 FILLER_17_261
*405 FILLER_17_273
*406 FILLER_17_279
*407 FILLER_17_28
*408 FILLER_17_281
*409 FILLER_17_293
*410 FILLER_17_3
*411 FILLER_17_36
*412 FILLER_17_42
*413 FILLER_17_51
*414 FILLER_17_55
*415 FILLER_17_57
*416 FILLER_17_62
*417 FILLER_17_74
*418 FILLER_17_86
*419 FILLER_17_98
*420 FILLER_18_109
*421 FILLER_18_121
*422 FILLER_18_133
*423 FILLER_18_139
*424 FILLER_18_141
*425 FILLER_18_153
*426 FILLER_18_165
*427 FILLER_18_177
*428 FILLER_18_189
*429 FILLER_18_195
*430 FILLER_18_197
*431 FILLER_18_209
*432 FILLER_18_21
*433 FILLER_18_221
*434 FILLER_18_233
*435 FILLER_18_245
*436 FILLER_18_251
*437 FILLER_18_253
*438 FILLER_18_265
*439 FILLER_18_27
*440 FILLER_18_277
*441 FILLER_18_289
*442 FILLER_18_29
*443 FILLER_18_297
*444 FILLER_18_3
*445 FILLER_18_37
*446 FILLER_18_44
*447 FILLER_18_53
*448 FILLER_18_60
*449 FILLER_18_72
*450 FILLER_18_85
*451 FILLER_18_97
*452 FILLER_19_111
*453 FILLER_19_113
*454 FILLER_19_125
*455 FILLER_19_137
*456 FILLER_19_149
*457 FILLER_19_16
*458 FILLER_19_161
*459 FILLER_19_167
*460 FILLER_19_169
*461 FILLER_19_181
*462 FILLER_19_193
*463 FILLER_19_205
*464 FILLER_19_217
*465 FILLER_19_223
*466 FILLER_19_225
*467 FILLER_19_237
*468 FILLER_19_249
*469 FILLER_19_261
*470 FILLER_19_27
*471 FILLER_19_273
*472 FILLER_19_279
*473 FILLER_19_281
*474 FILLER_19_293
*475 FILLER_19_3
*476 FILLER_19_35
*477 FILLER_19_41
*478 FILLER_19_54
*479 FILLER_19_57
*480 FILLER_19_75
*481 FILLER_19_8
*482 FILLER_19_87
*483 FILLER_19_99
*484 FILLER_1_10
*485 FILLER_1_105
*486 FILLER_1_111
*487 FILLER_1_113
*488 FILLER_1_125
*489 FILLER_1_137
*490 FILLER_1_149
*491 FILLER_1_161
*492 FILLER_1_167
*493 FILLER_1_169
*494 FILLER_1_18
*495 FILLER_1_181
*496 FILLER_1_193
*497 FILLER_1_205
*498 FILLER_1_217
*499 FILLER_1_223
*500 FILLER_1_225
*501 FILLER_1_237
*502 FILLER_1_249
*503 FILLER_1_261
*504 FILLER_1_273
*505 FILLER_1_279
*506 FILLER_1_281
*507 FILLER_1_293
*508 FILLER_1_3
*509 FILLER_1_35
*510 FILLER_1_45
*511 FILLER_1_53
*512 FILLER_1_57
*513 FILLER_1_69
*514 FILLER_1_81
*515 FILLER_1_93
*516 FILLER_20_109
*517 FILLER_20_121
*518 FILLER_20_133
*519 FILLER_20_139
*520 FILLER_20_141
*521 FILLER_20_153
*522 FILLER_20_165
*523 FILLER_20_177
*524 FILLER_20_189
*525 FILLER_20_19
*526 FILLER_20_195
*527 FILLER_20_197
*528 FILLER_20_209
*529 FILLER_20_221
*530 FILLER_20_233
*531 FILLER_20_245
*532 FILLER_20_251
*533 FILLER_20_253
*534 FILLER_20_26
*535 FILLER_20_265
*536 FILLER_20_277
*537 FILLER_20_289
*538 FILLER_20_29
*539 FILLER_20_297
*540 FILLER_20_3
*541 FILLER_20_39
*542 FILLER_20_50
*543 FILLER_20_59
*544 FILLER_20_71
*545 FILLER_20_83
*546 FILLER_20_85
*547 FILLER_20_97
*548 FILLER_21_107
*549 FILLER_21_111
*550 FILLER_21_113
*551 FILLER_21_125
*552 FILLER_21_137
*553 FILLER_21_149
*554 FILLER_21_15
*555 FILLER_21_161
*556 FILLER_21_167
*557 FILLER_21_169
*558 FILLER_21_181
*559 FILLER_21_193
*560 FILLER_21_205
*561 FILLER_21_217
*562 FILLER_21_223
*563 FILLER_21_225
*564 FILLER_21_237
*565 FILLER_21_249
*566 FILLER_21_261
*567 FILLER_21_273
*568 FILLER_21_279
*569 FILLER_21_281
*570 FILLER_21_293
*571 FILLER_21_3
*572 FILLER_21_34
*573 FILLER_21_45
*574 FILLER_21_54
*575 FILLER_21_57
*576 FILLER_21_64
*577 FILLER_21_71
*578 FILLER_21_83
*579 FILLER_21_95
*580 FILLER_22_109
*581 FILLER_22_121
*582 FILLER_22_133
*583 FILLER_22_139
*584 FILLER_22_141
*585 FILLER_22_153
*586 FILLER_22_165
*587 FILLER_22_177
*588 FILLER_22_189
*589 FILLER_22_195
*590 FILLER_22_197
*591 FILLER_22_209
*592 FILLER_22_22
*593 FILLER_22_221
*594 FILLER_22_233
*595 FILLER_22_245
*596 FILLER_22_251
*597 FILLER_22_253
*598 FILLER_22_265
*599 FILLER_22_277
*600 FILLER_22_289
*601 FILLER_22_29
*602 FILLER_22_297
*603 FILLER_22_3
*604 FILLER_22_49
*605 FILLER_22_69
*606 FILLER_22_81
*607 FILLER_22_85
*608 FILLER_22_97
*609 FILLER_23_105
*610 FILLER_23_111
*611 FILLER_23_113
*612 FILLER_23_125
*613 FILLER_23_137
*614 FILLER_23_149
*615 FILLER_23_161
*616 FILLER_23_167
*617 FILLER_23_169
*618 FILLER_23_181
*619 FILLER_23_193
*620 FILLER_23_205
*621 FILLER_23_217
*622 FILLER_23_223
*623 FILLER_23_225
*624 FILLER_23_23
*625 FILLER_23_237
*626 FILLER_23_249
*627 FILLER_23_261
*628 FILLER_23_273
*629 FILLER_23_279
*630 FILLER_23_281
*631 FILLER_23_293
*632 FILLER_23_3
*633 FILLER_23_31
*634 FILLER_23_39
*635 FILLER_23_46
*636 FILLER_23_54
*637 FILLER_23_57
*638 FILLER_23_69
*639 FILLER_23_81
*640 FILLER_23_93
*641 FILLER_24_109
*642 FILLER_24_121
*643 FILLER_24_133
*644 FILLER_24_139
*645 FILLER_24_141
*646 FILLER_24_15
*647 FILLER_24_153
*648 FILLER_24_165
*649 FILLER_24_177
*650 FILLER_24_189
*651 FILLER_24_195
*652 FILLER_24_197
*653 FILLER_24_209
*654 FILLER_24_22
*655 FILLER_24_221
*656 FILLER_24_233
*657 FILLER_24_245
*658 FILLER_24_251
*659 FILLER_24_253
*660 FILLER_24_265
*661 FILLER_24_277
*662 FILLER_24_289
*663 FILLER_24_29
*664 FILLER_24_297
*665 FILLER_24_3
*666 FILLER_24_41
*667 FILLER_24_53
*668 FILLER_24_65
*669 FILLER_24_77
*670 FILLER_24_83
*671 FILLER_24_85
*672 FILLER_24_97
*673 FILLER_25_105
*674 FILLER_25_111
*675 FILLER_25_113
*676 FILLER_25_125
*677 FILLER_25_137
*678 FILLER_25_149
*679 FILLER_25_161
*680 FILLER_25_167
*681 FILLER_25_169
*682 FILLER_25_17
*683 FILLER_25_181
*684 FILLER_25_193
*685 FILLER_25_205
*686 FILLER_25_217
*687 FILLER_25_223
*688 FILLER_25_225
*689 FILLER_25_237
*690 FILLER_25_249
*691 FILLER_25_261
*692 FILLER_25_273
*693 FILLER_25_279
*694 FILLER_25_281
*695 FILLER_25_29
*696 FILLER_25_293
*697 FILLER_25_3
*698 FILLER_25_41
*699 FILLER_25_53
*700 FILLER_25_57
*701 FILLER_25_69
*702 FILLER_25_81
*703 FILLER_25_9
*704 FILLER_25_93
*705 FILLER_26_109
*706 FILLER_26_121
*707 FILLER_26_133
*708 FILLER_26_139
*709 FILLER_26_141
*710 FILLER_26_15
*711 FILLER_26_153
*712 FILLER_26_165
*713 FILLER_26_177
*714 FILLER_26_189
*715 FILLER_26_195
*716 FILLER_26_197
*717 FILLER_26_209
*718 FILLER_26_221
*719 FILLER_26_23
*720 FILLER_26_233
*721 FILLER_26_245
*722 FILLER_26_251
*723 FILLER_26_253
*724 FILLER_26_265
*725 FILLER_26_27
*726 FILLER_26_277
*727 FILLER_26_289
*728 FILLER_26_29
*729 FILLER_26_297
*730 FILLER_26_3
*731 FILLER_26_41
*732 FILLER_26_53
*733 FILLER_26_65
*734 FILLER_26_7
*735 FILLER_26_77
*736 FILLER_26_83
*737 FILLER_26_85
*738 FILLER_26_97
*739 FILLER_27_105
*740 FILLER_27_11
*741 FILLER_27_111
*742 FILLER_27_113
*743 FILLER_27_125
*744 FILLER_27_137
*745 FILLER_27_149
*746 FILLER_27_161
*747 FILLER_27_167
*748 FILLER_27_169
*749 FILLER_27_181
*750 FILLER_27_193
*751 FILLER_27_205
*752 FILLER_27_217
*753 FILLER_27_223
*754 FILLER_27_225
*755 FILLER_27_23
*756 FILLER_27_237
*757 FILLER_27_249
*758 FILLER_27_261
*759 FILLER_27_273
*760 FILLER_27_279
*761 FILLER_27_281
*762 FILLER_27_293
*763 FILLER_27_3
*764 FILLER_27_35
*765 FILLER_27_47
*766 FILLER_27_55
*767 FILLER_27_57
*768 FILLER_27_69
*769 FILLER_27_81
*770 FILLER_27_93
*771 FILLER_28_109
*772 FILLER_28_121
*773 FILLER_28_133
*774 FILLER_28_139
*775 FILLER_28_141
*776 FILLER_28_153
*777 FILLER_28_165
*778 FILLER_28_177
*779 FILLER_28_18
*780 FILLER_28_189
*781 FILLER_28_195
*782 FILLER_28_197
*783 FILLER_28_209
*784 FILLER_28_221
*785 FILLER_28_233
*786 FILLER_28_245
*787 FILLER_28_251
*788 FILLER_28_253
*789 FILLER_28_26
*790 FILLER_28_265
*791 FILLER_28_277
*792 FILLER_28_289
*793 FILLER_28_29
*794 FILLER_28_297
*795 FILLER_28_3
*796 FILLER_28_41
*797 FILLER_28_53
*798 FILLER_28_65
*799 FILLER_28_77
*800 FILLER_28_83
*801 FILLER_28_85
*802 FILLER_28_97
*803 FILLER_29_105
*804 FILLER_29_111
*805 FILLER_29_113
*806 FILLER_29_125
*807 FILLER_29_137
*808 FILLER_29_149
*809 FILLER_29_15
*810 FILLER_29_161
*811 FILLER_29_167
*812 FILLER_29_169
*813 FILLER_29_181
*814 FILLER_29_193
*815 FILLER_29_205
*816 FILLER_29_217
*817 FILLER_29_223
*818 FILLER_29_225
*819 FILLER_29_237
*820 FILLER_29_249
*821 FILLER_29_261
*822 FILLER_29_27
*823 FILLER_29_273
*824 FILLER_29_279
*825 FILLER_29_281
*826 FILLER_29_293
*827 FILLER_29_3
*828 FILLER_29_39
*829 FILLER_29_51
*830 FILLER_29_55
*831 FILLER_29_57
*832 FILLER_29_69
*833 FILLER_29_81
*834 FILLER_29_93
*835 FILLER_2_109
*836 FILLER_2_121
*837 FILLER_2_133
*838 FILLER_2_139
*839 FILLER_2_141
*840 FILLER_2_153
*841 FILLER_2_165
*842 FILLER_2_177
*843 FILLER_2_189
*844 FILLER_2_195
*845 FILLER_2_197
*846 FILLER_2_209
*847 FILLER_2_221
*848 FILLER_2_233
*849 FILLER_2_245
*850 FILLER_2_251
*851 FILLER_2_253
*852 FILLER_2_26
*853 FILLER_2_265
*854 FILLER_2_277
*855 FILLER_2_289
*856 FILLER_2_29
*857 FILLER_2_297
*858 FILLER_2_3
*859 FILLER_2_49
*860 FILLER_2_61
*861 FILLER_2_73
*862 FILLER_2_81
*863 FILLER_2_85
*864 FILLER_2_9
*865 FILLER_2_97
*866 FILLER_30_109
*867 FILLER_30_121
*868 FILLER_30_133
*869 FILLER_30_139
*870 FILLER_30_141
*871 FILLER_30_15
*872 FILLER_30_153
*873 FILLER_30_165
*874 FILLER_30_177
*875 FILLER_30_189
*876 FILLER_30_195
*877 FILLER_30_197
*878 FILLER_30_209
*879 FILLER_30_221
*880 FILLER_30_233
*881 FILLER_30_245
*882 FILLER_30_251
*883 FILLER_30_253
*884 FILLER_30_265
*885 FILLER_30_27
*886 FILLER_30_277
*887 FILLER_30_289
*888 FILLER_30_29
*889 FILLER_30_297
*890 FILLER_30_3
*891 FILLER_30_41
*892 FILLER_30_53
*893 FILLER_30_65
*894 FILLER_30_77
*895 FILLER_30_83
*896 FILLER_30_85
*897 FILLER_30_97
*898 FILLER_31_105
*899 FILLER_31_111
*900 FILLER_31_113
*901 FILLER_31_125
*902 FILLER_31_137
*903 FILLER_31_149
*904 FILLER_31_161
*905 FILLER_31_167
*906 FILLER_31_169
*907 FILLER_31_181
*908 FILLER_31_193
*909 FILLER_31_20
*910 FILLER_31_205
*911 FILLER_31_217
*912 FILLER_31_223
*913 FILLER_31_225
*914 FILLER_31_237
*915 FILLER_31_249
*916 FILLER_31_261
*917 FILLER_31_273
*918 FILLER_31_279
*919 FILLER_31_281
*920 FILLER_31_293
*921 FILLER_31_3
*922 FILLER_31_32
*923 FILLER_31_44
*924 FILLER_31_57
*925 FILLER_31_69
*926 FILLER_31_8
*927 FILLER_31_81
*928 FILLER_31_93
*929 FILLER_32_109
*930 FILLER_32_121
*931 FILLER_32_133
*932 FILLER_32_139
*933 FILLER_32_141
*934 FILLER_32_15
*935 FILLER_32_153
*936 FILLER_32_165
*937 FILLER_32_177
*938 FILLER_32_189
*939 FILLER_32_195
*940 FILLER_32_197
*941 FILLER_32_209
*942 FILLER_32_221
*943 FILLER_32_233
*944 FILLER_32_245
*945 FILLER_32_251
*946 FILLER_32_253
*947 FILLER_32_265
*948 FILLER_32_27
*949 FILLER_32_277
*950 FILLER_32_289
*951 FILLER_32_29
*952 FILLER_32_297
*953 FILLER_32_3
*954 FILLER_32_41
*955 FILLER_32_53
*956 FILLER_32_65
*957 FILLER_32_77
*958 FILLER_32_83
*959 FILLER_32_85
*960 FILLER_32_97
*961 FILLER_33_105
*962 FILLER_33_111
*963 FILLER_33_113
*964 FILLER_33_125
*965 FILLER_33_137
*966 FILLER_33_149
*967 FILLER_33_15
*968 FILLER_33_161
*969 FILLER_33_167
*970 FILLER_33_169
*971 FILLER_33_181
*972 FILLER_33_193
*973 FILLER_33_205
*974 FILLER_33_217
*975 FILLER_33_223
*976 FILLER_33_225
*977 FILLER_33_237
*978 FILLER_33_249
*979 FILLER_33_261
*980 FILLER_33_27
*981 FILLER_33_273
*982 FILLER_33_279
*983 FILLER_33_281
*984 FILLER_33_293
*985 FILLER_33_3
*986 FILLER_33_39
*987 FILLER_33_51
*988 FILLER_33_55
*989 FILLER_33_57
*990 FILLER_33_69
*991 FILLER_33_81
*992 FILLER_33_93
*993 FILLER_34_109
*994 FILLER_34_121
*995 FILLER_34_133
*996 FILLER_34_139
*997 FILLER_34_141
*998 FILLER_34_15
*999 FILLER_34_153
*1000 FILLER_34_165
*1001 FILLER_34_177
*1002 FILLER_34_189
*1003 FILLER_34_195
*1004 FILLER_34_197
*1005 FILLER_34_209
*1006 FILLER_34_221
*1007 FILLER_34_233
*1008 FILLER_34_245
*1009 FILLER_34_251
*1010 FILLER_34_253
*1011 FILLER_34_265
*1012 FILLER_34_27
*1013 FILLER_34_277
*1014 FILLER_34_289
*1015 FILLER_34_29
*1016 FILLER_34_297
*1017 FILLER_34_3
*1018 FILLER_34_41
*1019 FILLER_34_53
*1020 FILLER_34_65
*1021 FILLER_34_77
*1022 FILLER_34_83
*1023 FILLER_34_85
*1024 FILLER_34_97
*1025 FILLER_35_105
*1026 FILLER_35_111
*1027 FILLER_35_113
*1028 FILLER_35_125
*1029 FILLER_35_137
*1030 FILLER_35_149
*1031 FILLER_35_161
*1032 FILLER_35_167
*1033 FILLER_35_169
*1034 FILLER_35_181
*1035 FILLER_35_193
*1036 FILLER_35_20
*1037 FILLER_35_205
*1038 FILLER_35_217
*1039 FILLER_35_223
*1040 FILLER_35_225
*1041 FILLER_35_237
*1042 FILLER_35_249
*1043 FILLER_35_261
*1044 FILLER_35_273
*1045 FILLER_35_279
*1046 FILLER_35_281
*1047 FILLER_35_293
*1048 FILLER_35_3
*1049 FILLER_35_32
*1050 FILLER_35_44
*1051 FILLER_35_57
*1052 FILLER_35_69
*1053 FILLER_35_8
*1054 FILLER_35_81
*1055 FILLER_35_93
*1056 FILLER_36_109
*1057 FILLER_36_121
*1058 FILLER_36_133
*1059 FILLER_36_139
*1060 FILLER_36_141
*1061 FILLER_36_15
*1062 FILLER_36_153
*1063 FILLER_36_165
*1064 FILLER_36_177
*1065 FILLER_36_189
*1066 FILLER_36_195
*1067 FILLER_36_197
*1068 FILLER_36_209
*1069 FILLER_36_221
*1070 FILLER_36_233
*1071 FILLER_36_245
*1072 FILLER_36_251
*1073 FILLER_36_253
*1074 FILLER_36_265
*1075 FILLER_36_27
*1076 FILLER_36_277
*1077 FILLER_36_289
*1078 FILLER_36_29
*1079 FILLER_36_297
*1080 FILLER_36_3
*1081 FILLER_36_41
*1082 FILLER_36_53
*1083 FILLER_36_65
*1084 FILLER_36_77
*1085 FILLER_36_83
*1086 FILLER_36_85
*1087 FILLER_36_97
*1088 FILLER_37_105
*1089 FILLER_37_111
*1090 FILLER_37_113
*1091 FILLER_37_125
*1092 FILLER_37_137
*1093 FILLER_37_149
*1094 FILLER_37_15
*1095 FILLER_37_161
*1096 FILLER_37_167
*1097 FILLER_37_169
*1098 FILLER_37_181
*1099 FILLER_37_193
*1100 FILLER_37_205
*1101 FILLER_37_217
*1102 FILLER_37_223
*1103 FILLER_37_225
*1104 FILLER_37_237
*1105 FILLER_37_249
*1106 FILLER_37_261
*1107 FILLER_37_27
*1108 FILLER_37_273
*1109 FILLER_37_279
*1110 FILLER_37_281
*1111 FILLER_37_293
*1112 FILLER_37_3
*1113 FILLER_37_39
*1114 FILLER_37_51
*1115 FILLER_37_55
*1116 FILLER_37_57
*1117 FILLER_37_69
*1118 FILLER_37_81
*1119 FILLER_37_93
*1120 FILLER_38_109
*1121 FILLER_38_121
*1122 FILLER_38_13
*1123 FILLER_38_133
*1124 FILLER_38_139
*1125 FILLER_38_141
*1126 FILLER_38_153
*1127 FILLER_38_165
*1128 FILLER_38_177
*1129 FILLER_38_189
*1130 FILLER_38_195
*1131 FILLER_38_197
*1132 FILLER_38_209
*1133 FILLER_38_221
*1134 FILLER_38_233
*1135 FILLER_38_245
*1136 FILLER_38_25
*1137 FILLER_38_251
*1138 FILLER_38_253
*1139 FILLER_38_265
*1140 FILLER_38_277
*1141 FILLER_38_289
*1142 FILLER_38_29
*1143 FILLER_38_297
*1144 FILLER_38_3
*1145 FILLER_38_41
*1146 FILLER_38_53
*1147 FILLER_38_65
*1148 FILLER_38_77
*1149 FILLER_38_83
*1150 FILLER_38_85
*1151 FILLER_38_97
*1152 FILLER_39_105
*1153 FILLER_39_111
*1154 FILLER_39_113
*1155 FILLER_39_125
*1156 FILLER_39_13
*1157 FILLER_39_137
*1158 FILLER_39_149
*1159 FILLER_39_161
*1160 FILLER_39_167
*1161 FILLER_39_169
*1162 FILLER_39_181
*1163 FILLER_39_193
*1164 FILLER_39_20
*1165 FILLER_39_205
*1166 FILLER_39_217
*1167 FILLER_39_223
*1168 FILLER_39_225
*1169 FILLER_39_237
*1170 FILLER_39_249
*1171 FILLER_39_261
*1172 FILLER_39_273
*1173 FILLER_39_279
*1174 FILLER_39_281
*1175 FILLER_39_293
*1176 FILLER_39_3
*1177 FILLER_39_32
*1178 FILLER_39_44
*1179 FILLER_39_57
*1180 FILLER_39_69
*1181 FILLER_39_81
*1182 FILLER_39_93
*1183 FILLER_3_105
*1184 FILLER_3_11
*1185 FILLER_3_111
*1186 FILLER_3_113
*1187 FILLER_3_125
*1188 FILLER_3_137
*1189 FILLER_3_149
*1190 FILLER_3_161
*1191 FILLER_3_167
*1192 FILLER_3_169
*1193 FILLER_3_181
*1194 FILLER_3_19
*1195 FILLER_3_193
*1196 FILLER_3_205
*1197 FILLER_3_217
*1198 FILLER_3_223
*1199 FILLER_3_225
*1200 FILLER_3_237
*1201 FILLER_3_249
*1202 FILLER_3_261
*1203 FILLER_3_273
*1204 FILLER_3_279
*1205 FILLER_3_281
*1206 FILLER_3_293
*1207 FILLER_3_3
*1208 FILLER_3_37
*1209 FILLER_3_44
*1210 FILLER_3_51
*1211 FILLER_3_55
*1212 FILLER_3_57
*1213 FILLER_3_69
*1214 FILLER_3_81
*1215 FILLER_3_93
*1216 FILLER_40_109
*1217 FILLER_40_121
*1218 FILLER_40_133
*1219 FILLER_40_139
*1220 FILLER_40_141
*1221 FILLER_40_153
*1222 FILLER_40_165
*1223 FILLER_40_177
*1224 FILLER_40_18
*1225 FILLER_40_189
*1226 FILLER_40_195
*1227 FILLER_40_197
*1228 FILLER_40_209
*1229 FILLER_40_221
*1230 FILLER_40_233
*1231 FILLER_40_245
*1232 FILLER_40_251
*1233 FILLER_40_253
*1234 FILLER_40_26
*1235 FILLER_40_265
*1236 FILLER_40_277
*1237 FILLER_40_289
*1238 FILLER_40_29
*1239 FILLER_40_297
*1240 FILLER_40_3
*1241 FILLER_40_41
*1242 FILLER_40_53
*1243 FILLER_40_65
*1244 FILLER_40_77
*1245 FILLER_40_83
*1246 FILLER_40_85
*1247 FILLER_40_97
*1248 FILLER_41_105
*1249 FILLER_41_111
*1250 FILLER_41_113
*1251 FILLER_41_125
*1252 FILLER_41_137
*1253 FILLER_41_149
*1254 FILLER_41_15
*1255 FILLER_41_161
*1256 FILLER_41_167
*1257 FILLER_41_169
*1258 FILLER_41_181
*1259 FILLER_41_193
*1260 FILLER_41_205
*1261 FILLER_41_217
*1262 FILLER_41_223
*1263 FILLER_41_225
*1264 FILLER_41_237
*1265 FILLER_41_249
*1266 FILLER_41_261
*1267 FILLER_41_27
*1268 FILLER_41_273
*1269 FILLER_41_279
*1270 FILLER_41_281
*1271 FILLER_41_293
*1272 FILLER_41_3
*1273 FILLER_41_39
*1274 FILLER_41_51
*1275 FILLER_41_55
*1276 FILLER_41_57
*1277 FILLER_41_69
*1278 FILLER_41_81
*1279 FILLER_41_93
*1280 FILLER_42_109
*1281 FILLER_42_121
*1282 FILLER_42_133
*1283 FILLER_42_139
*1284 FILLER_42_141
*1285 FILLER_42_15
*1286 FILLER_42_153
*1287 FILLER_42_165
*1288 FILLER_42_177
*1289 FILLER_42_189
*1290 FILLER_42_195
*1291 FILLER_42_197
*1292 FILLER_42_209
*1293 FILLER_42_221
*1294 FILLER_42_233
*1295 FILLER_42_245
*1296 FILLER_42_251
*1297 FILLER_42_253
*1298 FILLER_42_265
*1299 FILLER_42_27
*1300 FILLER_42_277
*1301 FILLER_42_289
*1302 FILLER_42_29
*1303 FILLER_42_297
*1304 FILLER_42_3
*1305 FILLER_42_41
*1306 FILLER_42_53
*1307 FILLER_42_65
*1308 FILLER_42_77
*1309 FILLER_42_83
*1310 FILLER_42_85
*1311 FILLER_42_97
*1312 FILLER_43_105
*1313 FILLER_43_111
*1314 FILLER_43_113
*1315 FILLER_43_125
*1316 FILLER_43_137
*1317 FILLER_43_149
*1318 FILLER_43_15
*1319 FILLER_43_161
*1320 FILLER_43_167
*1321 FILLER_43_169
*1322 FILLER_43_181
*1323 FILLER_43_193
*1324 FILLER_43_205
*1325 FILLER_43_217
*1326 FILLER_43_223
*1327 FILLER_43_225
*1328 FILLER_43_237
*1329 FILLER_43_249
*1330 FILLER_43_261
*1331 FILLER_43_27
*1332 FILLER_43_273
*1333 FILLER_43_279
*1334 FILLER_43_281
*1335 FILLER_43_293
*1336 FILLER_43_3
*1337 FILLER_43_39
*1338 FILLER_43_51
*1339 FILLER_43_55
*1340 FILLER_43_57
*1341 FILLER_43_69
*1342 FILLER_43_81
*1343 FILLER_43_93
*1344 FILLER_44_109
*1345 FILLER_44_121
*1346 FILLER_44_133
*1347 FILLER_44_139
*1348 FILLER_44_141
*1349 FILLER_44_15
*1350 FILLER_44_153
*1351 FILLER_44_165
*1352 FILLER_44_177
*1353 FILLER_44_189
*1354 FILLER_44_195
*1355 FILLER_44_197
*1356 FILLER_44_209
*1357 FILLER_44_221
*1358 FILLER_44_233
*1359 FILLER_44_245
*1360 FILLER_44_251
*1361 FILLER_44_253
*1362 FILLER_44_265
*1363 FILLER_44_27
*1364 FILLER_44_277
*1365 FILLER_44_289
*1366 FILLER_44_29
*1367 FILLER_44_297
*1368 FILLER_44_3
*1369 FILLER_44_41
*1370 FILLER_44_53
*1371 FILLER_44_65
*1372 FILLER_44_77
*1373 FILLER_44_83
*1374 FILLER_44_85
*1375 FILLER_44_97
*1376 FILLER_45_105
*1377 FILLER_45_111
*1378 FILLER_45_113
*1379 FILLER_45_125
*1380 FILLER_45_137
*1381 FILLER_45_149
*1382 FILLER_45_15
*1383 FILLER_45_161
*1384 FILLER_45_167
*1385 FILLER_45_169
*1386 FILLER_45_181
*1387 FILLER_45_193
*1388 FILLER_45_205
*1389 FILLER_45_217
*1390 FILLER_45_223
*1391 FILLER_45_225
*1392 FILLER_45_237
*1393 FILLER_45_249
*1394 FILLER_45_261
*1395 FILLER_45_27
*1396 FILLER_45_273
*1397 FILLER_45_279
*1398 FILLER_45_281
*1399 FILLER_45_293
*1400 FILLER_45_3
*1401 FILLER_45_39
*1402 FILLER_45_51
*1403 FILLER_45_55
*1404 FILLER_45_57
*1405 FILLER_45_69
*1406 FILLER_45_81
*1407 FILLER_45_93
*1408 FILLER_46_109
*1409 FILLER_46_121
*1410 FILLER_46_133
*1411 FILLER_46_139
*1412 FILLER_46_141
*1413 FILLER_46_15
*1414 FILLER_46_153
*1415 FILLER_46_165
*1416 FILLER_46_177
*1417 FILLER_46_189
*1418 FILLER_46_195
*1419 FILLER_46_197
*1420 FILLER_46_209
*1421 FILLER_46_221
*1422 FILLER_46_233
*1423 FILLER_46_245
*1424 FILLER_46_251
*1425 FILLER_46_253
*1426 FILLER_46_265
*1427 FILLER_46_27
*1428 FILLER_46_277
*1429 FILLER_46_289
*1430 FILLER_46_29
*1431 FILLER_46_297
*1432 FILLER_46_3
*1433 FILLER_46_41
*1434 FILLER_46_53
*1435 FILLER_46_65
*1436 FILLER_46_77
*1437 FILLER_46_83
*1438 FILLER_46_85
*1439 FILLER_46_97
*1440 FILLER_47_105
*1441 FILLER_47_111
*1442 FILLER_47_113
*1443 FILLER_47_125
*1444 FILLER_47_137
*1445 FILLER_47_149
*1446 FILLER_47_15
*1447 FILLER_47_161
*1448 FILLER_47_167
*1449 FILLER_47_169
*1450 FILLER_47_181
*1451 FILLER_47_193
*1452 FILLER_47_205
*1453 FILLER_47_217
*1454 FILLER_47_223
*1455 FILLER_47_225
*1456 FILLER_47_237
*1457 FILLER_47_249
*1458 FILLER_47_261
*1459 FILLER_47_27
*1460 FILLER_47_273
*1461 FILLER_47_279
*1462 FILLER_47_281
*1463 FILLER_47_293
*1464 FILLER_47_3
*1465 FILLER_47_39
*1466 FILLER_47_51
*1467 FILLER_47_55
*1468 FILLER_47_57
*1469 FILLER_47_69
*1470 FILLER_47_81
*1471 FILLER_47_93
*1472 FILLER_48_109
*1473 FILLER_48_121
*1474 FILLER_48_133
*1475 FILLER_48_139
*1476 FILLER_48_141
*1477 FILLER_48_15
*1478 FILLER_48_153
*1479 FILLER_48_165
*1480 FILLER_48_177
*1481 FILLER_48_189
*1482 FILLER_48_195
*1483 FILLER_48_197
*1484 FILLER_48_209
*1485 FILLER_48_221
*1486 FILLER_48_233
*1487 FILLER_48_245
*1488 FILLER_48_251
*1489 FILLER_48_253
*1490 FILLER_48_265
*1491 FILLER_48_27
*1492 FILLER_48_277
*1493 FILLER_48_289
*1494 FILLER_48_29
*1495 FILLER_48_297
*1496 FILLER_48_3
*1497 FILLER_48_41
*1498 FILLER_48_53
*1499 FILLER_48_65
*1500 FILLER_48_77
*1501 FILLER_48_83
*1502 FILLER_48_85
*1503 FILLER_48_97
*1504 FILLER_49_105
*1505 FILLER_49_111
*1506 FILLER_49_113
*1507 FILLER_49_125
*1508 FILLER_49_137
*1509 FILLER_49_149
*1510 FILLER_49_15
*1511 FILLER_49_161
*1512 FILLER_49_167
*1513 FILLER_49_169
*1514 FILLER_49_181
*1515 FILLER_49_193
*1516 FILLER_49_205
*1517 FILLER_49_217
*1518 FILLER_49_223
*1519 FILLER_49_225
*1520 FILLER_49_237
*1521 FILLER_49_249
*1522 FILLER_49_261
*1523 FILLER_49_27
*1524 FILLER_49_273
*1525 FILLER_49_279
*1526 FILLER_49_281
*1527 FILLER_49_293
*1528 FILLER_49_3
*1529 FILLER_49_39
*1530 FILLER_49_51
*1531 FILLER_49_55
*1532 FILLER_49_57
*1533 FILLER_49_69
*1534 FILLER_49_81
*1535 FILLER_49_93
*1536 FILLER_4_109
*1537 FILLER_4_121
*1538 FILLER_4_133
*1539 FILLER_4_139
*1540 FILLER_4_141
*1541 FILLER_4_153
*1542 FILLER_4_165
*1543 FILLER_4_177
*1544 FILLER_4_189
*1545 FILLER_4_195
*1546 FILLER_4_197
*1547 FILLER_4_209
*1548 FILLER_4_21
*1549 FILLER_4_221
*1550 FILLER_4_233
*1551 FILLER_4_245
*1552 FILLER_4_251
*1553 FILLER_4_253
*1554 FILLER_4_265
*1555 FILLER_4_27
*1556 FILLER_4_277
*1557 FILLER_4_289
*1558 FILLER_4_29
*1559 FILLER_4_297
*1560 FILLER_4_3
*1561 FILLER_4_34
*1562 FILLER_4_44
*1563 FILLER_4_57
*1564 FILLER_4_64
*1565 FILLER_4_76
*1566 FILLER_4_85
*1567 FILLER_4_97
*1568 FILLER_50_109
*1569 FILLER_50_121
*1570 FILLER_50_133
*1571 FILLER_50_139
*1572 FILLER_50_141
*1573 FILLER_50_15
*1574 FILLER_50_153
*1575 FILLER_50_165
*1576 FILLER_50_177
*1577 FILLER_50_189
*1578 FILLER_50_195
*1579 FILLER_50_197
*1580 FILLER_50_209
*1581 FILLER_50_221
*1582 FILLER_50_233
*1583 FILLER_50_245
*1584 FILLER_50_251
*1585 FILLER_50_253
*1586 FILLER_50_265
*1587 FILLER_50_27
*1588 FILLER_50_277
*1589 FILLER_50_289
*1590 FILLER_50_29
*1591 FILLER_50_297
*1592 FILLER_50_3
*1593 FILLER_50_41
*1594 FILLER_50_53
*1595 FILLER_50_65
*1596 FILLER_50_77
*1597 FILLER_50_83
*1598 FILLER_50_85
*1599 FILLER_50_97
*1600 FILLER_51_105
*1601 FILLER_51_111
*1602 FILLER_51_113
*1603 FILLER_51_125
*1604 FILLER_51_137
*1605 FILLER_51_149
*1606 FILLER_51_15
*1607 FILLER_51_161
*1608 FILLER_51_167
*1609 FILLER_51_169
*1610 FILLER_51_181
*1611 FILLER_51_193
*1612 FILLER_51_205
*1613 FILLER_51_217
*1614 FILLER_51_223
*1615 FILLER_51_225
*1616 FILLER_51_237
*1617 FILLER_51_249
*1618 FILLER_51_261