*SPEF "ieee 1481-1999"
*DESIGN "fraserbc_simon"
*DATE "11:11:11 Fri 11 11, 1111"
*VENDOR "OpenRCX"
*PROGRAM "Parallel Extraction"
*VERSION "1.0"
*DESIGN_FLOW "NAME_SCOPE LOCAL" "PIN_CAP NONE"
*DIVIDER /
*DELIMITER :
*BUS_DELIMITER []
*T_UNIT 1 NS
*C_UNIT 1 PF
*R_UNIT 1 OHM
*L_UNIT 1 HENRY

*NAME_MAP
*1 io_in[0]
*2 io_in[1]
*3 io_in[2]
*4 io_in[3]
*5 io_in[4]
*6 io_in[5]
*7 io_in[6]
*8 io_in[7]
*9 io_out[0]
*10 io_out[1]
*11 io_out[2]
*12 io_out[3]
*13 net6
*14 net7
*15 net8
*16 net9
*19 _000_
*20 _001_
*21 _002_
*22 _003_
*23 _004_
*24 _005_
*25 _006_
*26 _007_
*27 _008_
*28 _009_
*29 _010_
*30 _011_
*31 _012_
*32 _013_
*33 _014_
*34 _015_
*35 _016_
*36 _017_
*37 _018_
*38 _019_
*39 _020_
*40 _021_
*41 _022_
*42 _023_
*43 _024_
*44 _025_
*45 _026_
*46 _027_
*47 _028_
*48 _029_
*49 _030_
*50 _031_
*51 _032_
*52 _033_
*53 _034_
*54 _035_
*55 _036_
*56 _037_
*57 _038_
*58 _039_
*59 _040_
*60 _041_
*61 _042_
*62 _043_
*63 _044_
*64 _045_
*65 _046_
*66 _047_
*67 _048_
*68 _049_
*69 _050_
*70 _051_
*71 _052_
*72 _053_
*73 _054_
*74 _055_
*75 _056_
*76 _057_
*77 _058_
*78 _059_
*79 _060_
*80 _061_
*81 _062_
*82 _063_
*83 _064_
*84 _065_
*85 _066_
*86 _067_
*87 _068_
*88 _069_
*89 _070_
*90 _071_
*91 _072_
*92 _073_
*93 _074_
*94 _075_
*95 _076_
*96 _077_
*97 _078_
*98 _079_
*99 _080_
*100 _081_
*101 _082_
*102 _083_
*103 _084_
*104 _085_
*105 _086_
*106 _087_
*107 _088_
*108 _089_
*109 _090_
*110 _091_
*111 _092_
*112 _093_
*113 _094_
*114 _095_
*115 _096_
*116 _097_
*117 _098_
*118 _099_
*119 _100_
*120 _101_
*121 _102_
*122 _103_
*123 _104_
*124 _105_
*125 _106_
*126 _107_
*127 _108_
*128 _109_
*129 _110_
*130 _111_
*131 _112_
*132 _113_
*133 _114_
*134 _115_
*135 _116_
*136 _117_
*137 _118_
*138 _119_
*139 _120_
*140 _121_
*141 _122_
*142 _123_
*143 _124_
*144 _125_
*145 _126_
*146 _127_
*147 _128_
*148 _129_
*149 _130_
*150 _131_
*151 _132_
*152 _133_
*153 _134_
*154 _135_
*155 _136_
*156 _137_
*157 _138_
*158 _139_
*159 _140_
*160 _141_
*161 _142_
*162 _143_
*163 _144_
*164 _145_
*165 _146_
*166 _147_
*167 _148_
*168 _149_
*169 _150_
*170 _151_
*171 _152_
*172 _153_
*173 _154_
*174 _155_
*175 _156_
*176 _157_
*177 _158_
*178 _159_
*179 _160_
*180 _161_
*181 _162_
*182 _163_
*183 _164_
*184 _165_
*185 _166_
*186 _167_
*187 _168_
*188 _169_
*189 _170_
*190 _171_
*191 _172_
*192 _173_
*193 _174_
*194 _175_
*195 _176_
*196 _177_
*197 _178_
*198 _179_
*199 _180_
*200 _181_
*201 _182_
*202 _183_
*203 _184_
*204 _185_
*205 _186_
*206 _187_
*207 _188_
*208 _189_
*209 _190_
*210 _191_
*211 _192_
*212 _193_
*213 _194_
*214 _195_
*215 _196_
*216 _197_
*217 _198_
*218 _199_
*219 _200_
*220 _201_
*221 _202_
*222 _203_
*223 _204_
*224 _205_
*225 _206_
*226 _207_
*227 _208_
*228 _209_
*229 _210_
*230 _211_
*231 _212_
*232 _213_
*233 _214_
*234 _215_
*235 _216_
*236 _217_
*237 _218_
*238 _219_
*239 _220_
*240 _221_
*241 _222_
*242 _223_
*243 _224_
*244 _225_
*245 _226_
*246 _227_
*247 _228_
*248 _229_
*249 _230_
*250 _231_
*251 _232_
*252 _233_
*253 _234_
*254 _235_
*255 _236_
*256 _237_
*257 _238_
*258 _239_
*259 _240_
*260 _241_
*261 _242_
*262 _243_
*263 _244_
*264 _245_
*265 _246_
*266 _247_
*267 _248_
*268 _249_
*269 _250_
*270 _251_
*271 _252_
*272 _253_
*273 _254_
*274 _255_
*275 _256_
*276 _257_
*277 _258_
*278 _259_
*279 _260_
*280 _261_
*281 _262_
*282 _263_
*283 _264_
*284 _265_
*285 _266_
*286 _267_
*287 _268_
*288 _269_
*289 _270_
*290 _271_
*291 _272_
*292 _273_
*293 _274_
*294 _275_
*295 _276_
*296 _277_
*297 _278_
*298 _279_
*299 _280_
*300 _281_
*301 _282_
*302 _283_
*303 _284_
*304 _285_
*305 _286_
*306 _287_
*307 _288_
*308 _289_
*309 _290_
*310 _291_
*311 _292_
*312 _293_
*313 _294_
*314 _295_
*315 _296_
*316 _297_
*317 _298_
*318 _299_
*319 _300_
*320 _301_
*321 _302_
*322 _303_
*323 _304_
*324 _305_
*325 _306_
*326 _307_
*327 _308_
*328 _309_
*329 _310_
*330 _311_
*331 _312_
*332 _313_
*333 _314_
*334 _315_
*335 _316_
*336 _317_
*337 _318_
*338 _319_
*339 _320_
*340 _321_
*341 _322_
*342 _323_
*343 _324_
*344 _325_
*345 _326_
*346 clknet_0_io_in[0]
*347 clknet_3_0__leaf_io_in[0]
*348 clknet_3_1__leaf_io_in[0]
*349 clknet_3_2__leaf_io_in[0]
*350 clknet_3_3__leaf_io_in[0]
*351 clknet_3_4__leaf_io_in[0]
*352 clknet_3_5__leaf_io_in[0]
*353 clknet_3_6__leaf_io_in[0]
*354 clknet_3_7__leaf_io_in[0]
*355 net1
*356 net2
*357 net3
*358 net4
*359 net5
*360 simon0\.lfsr0\.o_data
*361 simon0\.lfsr0\.r_lfsr\[1\]
*362 simon0\.lfsr0\.r_lfsr\[2\]
*363 simon0\.lfsr0\.r_lfsr\[3\]
*364 simon0\.lfsr0\.r_lfsr\[4\]
*365 simon0\.r_key\[0\]
*366 simon0\.r_key\[10\]
*367 simon0\.r_key\[11\]
*368 simon0\.r_key\[12\]
*369 simon0\.r_key\[13\]
*370 simon0\.r_key\[14\]
*371 simon0\.r_key\[15\]
*372 simon0\.r_key\[16\]
*373 simon0\.r_key\[17\]
*374 simon0\.r_key\[18\]
*375 simon0\.r_key\[19\]
*376 simon0\.r_key\[1\]
*377 simon0\.r_key\[20\]
*378 simon0\.r_key\[21\]
*379 simon0\.r_key\[22\]
*380 simon0\.r_key\[23\]
*381 simon0\.r_key\[24\]
*382 simon0\.r_key\[25\]
*383 simon0\.r_key\[26\]
*384 simon0\.r_key\[27\]
*385 simon0\.r_key\[28\]
*386 simon0\.r_key\[29\]
*387 simon0\.r_key\[2\]
*388 simon0\.r_key\[30\]
*389 simon0\.r_key\[31\]
*390 simon0\.r_key\[32\]
*391 simon0\.r_key\[33\]
*392 simon0\.r_key\[34\]
*393 simon0\.r_key\[35\]
*394 simon0\.r_key\[36\]
*395 simon0\.r_key\[37\]
*396 simon0\.r_key\[38\]
*397 simon0\.r_key\[39\]
*398 simon0\.r_key\[3\]
*399 simon0\.r_key\[40\]
*400 simon0\.r_key\[41\]
*401 simon0\.r_key\[42\]
*402 simon0\.r_key\[43\]
*403 simon0\.r_key\[44\]
*404 simon0\.r_key\[45\]
*405 simon0\.r_key\[46\]
*406 simon0\.r_key\[47\]
*407 simon0\.r_key\[48\]
*408 simon0\.r_key\[49\]
*409 simon0\.r_key\[4\]
*410 simon0\.r_key\[50\]
*411 simon0\.r_key\[51\]
*412 simon0\.r_key\[52\]
*413 simon0\.r_key\[53\]
*414 simon0\.r_key\[54\]
*415 simon0\.r_key\[55\]
*416 simon0\.r_key\[56\]
*417 simon0\.r_key\[57\]
*418 simon0\.r_key\[58\]
*419 simon0\.r_key\[59\]
*420 simon0\.r_key\[5\]
*421 simon0\.r_key\[60\]
*422 simon0\.r_key\[61\]
*423 simon0\.r_key\[62\]
*424 simon0\.r_key\[63\]
*425 simon0\.r_key\[6\]
*426 simon0\.r_key\[7\]
*427 simon0\.r_key\[8\]
*428 simon0\.r_key\[9\]
*429 simon0\.r_round\[0\]
*430 simon0\.r_round\[10\]
*431 simon0\.r_round\[11\]
*432 simon0\.r_round\[12\]
*433 simon0\.r_round\[13\]
*434 simon0\.r_round\[14\]
*435 simon0\.r_round\[15\]
*436 simon0\.r_round\[16\]
*437 simon0\.r_round\[17\]
*438 simon0\.r_round\[18\]
*439 simon0\.r_round\[19\]
*440 simon0\.r_round\[1\]
*441 simon0\.r_round\[20\]
*442 simon0\.r_round\[21\]
*443 simon0\.r_round\[22\]
*444 simon0\.r_round\[23\]
*445 simon0\.r_round\[24\]
*446 simon0\.r_round\[25\]
*447 simon0\.r_round\[26\]
*448 simon0\.r_round\[27\]
*449 simon0\.r_round\[28\]
*450 simon0\.r_round\[29\]
*451 simon0\.r_round\[2\]
*452 simon0\.r_round\[30\]
*453 simon0\.r_round\[31\]
*454 simon0\.r_round\[3\]
*455 simon0\.r_round\[4\]
*456 simon0\.r_round\[5\]
*457 simon0\.r_round\[6\]
*458 simon0\.r_round\[7\]
*459 simon0\.r_round\[8\]
*460 simon0\.r_round\[9\]
*461 ANTENNA_1
*462 ANTENNA_10
*463 ANTENNA_2
*464 ANTENNA_3
*465 ANTENNA_4
*466 ANTENNA_5
*467 ANTENNA_6
*468 ANTENNA_7
*469 ANTENNA_8
*470 ANTENNA_9
*471 FILLER_0_109
*472 FILLER_0_113
*473 FILLER_0_131
*474 FILLER_0_138
*475 FILLER_0_141
*476 FILLER_0_159
*477 FILLER_0_166
*478 FILLER_0_169
*479 FILLER_0_174
*480 FILLER_0_186
*481 FILLER_0_194
*482 FILLER_0_197
*483 FILLER_0_209
*484 FILLER_0_221
*485 FILLER_0_225
*486 FILLER_0_237
*487 FILLER_0_249
*488 FILLER_0_253
*489 FILLER_0_26
*490 FILLER_0_265
*491 FILLER_0_277
*492 FILLER_0_281
*493 FILLER_0_29
*494 FILLER_0_293
*495 FILLER_0_3
*496 FILLER_0_35
*497 FILLER_0_53
*498 FILLER_0_57
*499 FILLER_0_7
*500 FILLER_0_76
*501 FILLER_0_80
*502 FILLER_0_85
*503 FILLER_10_103
*504 FILLER_10_109
*505 FILLER_10_129
*506 FILLER_10_138
*507 FILLER_10_141
*508 FILLER_10_152
*509 FILLER_10_159
*510 FILLER_10_176
*511 FILLER_10_193
*512 FILLER_10_197
*513 FILLER_10_209
*514 FILLER_10_221
*515 FILLER_10_233
*516 FILLER_10_245
*517 FILLER_10_251
*518 FILLER_10_253
*519 FILLER_10_26
*520 FILLER_10_265
*521 FILLER_10_277
*522 FILLER_10_289
*523 FILLER_10_29
*524 FILLER_10_297
*525 FILLER_10_3
*526 FILLER_10_48
*527 FILLER_10_60
*528 FILLER_10_82
*529 FILLER_10_85
*530 FILLER_11_105
*531 FILLER_11_111
*532 FILLER_11_113
*533 FILLER_11_132
*534 FILLER_11_139
*535 FILLER_11_147
*536 FILLER_11_15
*537 FILLER_11_161
*538 FILLER_11_167
*539 FILLER_11_169
*540 FILLER_11_182
*541 FILLER_11_195
*542 FILLER_11_202
*543 FILLER_11_214
*544 FILLER_11_222
*545 FILLER_11_225
*546 FILLER_11_237
*547 FILLER_11_249
*548 FILLER_11_261
*549 FILLER_11_273
*550 FILLER_11_279
*551 FILLER_11_281
*552 FILLER_11_293
*553 FILLER_11_3
*554 FILLER_11_36
*555 FILLER_11_50
*556 FILLER_11_57
*557 FILLER_11_69
*558 FILLER_11_93
*559 FILLER_12_104
*560 FILLER_12_127
*561 FILLER_12_139
*562 FILLER_12_141
*563 FILLER_12_153
*564 FILLER_12_159
*565 FILLER_12_169
*566 FILLER_12_177
*567 FILLER_12_188
*568 FILLER_12_197
*569 FILLER_12_209
*570 FILLER_12_213
*571 FILLER_12_225
*572 FILLER_12_237
*573 FILLER_12_246
*574 FILLER_12_25
*575 FILLER_12_253
*576 FILLER_12_265
*577 FILLER_12_277
*578 FILLER_12_289
*579 FILLER_12_29
*580 FILLER_12_297
*581 FILLER_12_3
*582 FILLER_12_48
*583 FILLER_12_56
*584 FILLER_12_60
*585 FILLER_12_82
*586 FILLER_12_85
*587 FILLER_13_110
*588 FILLER_13_113
*589 FILLER_13_132
*590 FILLER_13_144
*591 FILLER_13_148
*592 FILLER_13_15
*593 FILLER_13_158
*594 FILLER_13_166
*595 FILLER_13_169
*596 FILLER_13_175
*597 FILLER_13_179
*598 FILLER_13_187
*599 FILLER_13_198
*600 FILLER_13_210
*601 FILLER_13_222
*602 FILLER_13_225
*603 FILLER_13_230
*604 FILLER_13_242
*605 FILLER_13_254
*606 FILLER_13_266
*607 FILLER_13_278
*608 FILLER_13_281
*609 FILLER_13_293
*610 FILLER_13_3
*611 FILLER_13_34
*612 FILLER_13_54
*613 FILLER_13_57
*614 FILLER_13_62
*615 FILLER_13_82
*616 FILLER_13_86
*617 FILLER_13_90
*618 FILLER_14_105
*619 FILLER_14_109
*620 FILLER_14_126
*621 FILLER_14_138
*622 FILLER_14_141
*623 FILLER_14_145
*624 FILLER_14_159
*625 FILLER_14_184
*626 FILLER_14_197
*627 FILLER_14_209
*628 FILLER_14_21
*629 FILLER_14_213
*630 FILLER_14_223
*631 FILLER_14_235
*632 FILLER_14_247
*633 FILLER_14_251
*634 FILLER_14_253
*635 FILLER_14_265
*636 FILLER_14_27
*637 FILLER_14_277
*638 FILLER_14_289
*639 FILLER_14_29
*640 FILLER_14_297
*641 FILLER_14_3
*642 FILLER_14_37
*643 FILLER_14_55
*644 FILLER_14_75
*645 FILLER_14_83
*646 FILLER_14_85
*647 FILLER_15_103
*648 FILLER_15_111
*649 FILLER_15_113
*650 FILLER_15_131
*651 FILLER_15_141
*652 FILLER_15_15
*653 FILLER_15_152
*654 FILLER_15_165
*655 FILLER_15_169
*656 FILLER_15_174
*657 FILLER_15_186
*658 FILLER_15_207
*659 FILLER_15_219
*660 FILLER_15_223
*661 FILLER_15_225
*662 FILLER_15_231
*663 FILLER_15_235
*664 FILLER_15_243
*665 FILLER_15_254
*666 FILLER_15_267
*667 FILLER_15_279
*668 FILLER_15_281
*669 FILLER_15_293
*670 FILLER_15_3
*671 FILLER_15_34
*672 FILLER_15_54
*673 FILLER_15_57
*674 FILLER_15_65
*675 FILLER_15_83
*676 FILLER_16_106
*677 FILLER_16_126
*678 FILLER_16_130
*679 FILLER_16_138
*680 FILLER_16_141
*681 FILLER_16_158
*682 FILLER_16_170
*683 FILLER_16_174
*684 FILLER_16_180
*685 FILLER_16_188
*686 FILLER_16_194
*687 FILLER_16_197
*688 FILLER_16_203
*689 FILLER_16_21
*690 FILLER_16_216
*691 FILLER_16_224
*692 FILLER_16_229
*693 FILLER_16_241
*694 FILLER_16_249
*695 FILLER_16_253
*696 FILLER_16_265
*697 FILLER_16_27
*698 FILLER_16_277
*699 FILLER_16_289
*700 FILLER_16_29
*701 FILLER_16_297
*702 FILLER_16_3
*703 FILLER_16_48
*704 FILLER_16_60
*705 FILLER_16_80
*706 FILLER_16_85
*707 FILLER_16_89
*708 FILLER_17_105
*709 FILLER_17_111
*710 FILLER_17_113
*711 FILLER_17_125
*712 FILLER_17_137
*713 FILLER_17_149
*714 FILLER_17_15
*715 FILLER_17_166
*716 FILLER_17_169
*717 FILLER_17_185
*718 FILLER_17_202
*719 FILLER_17_209
*720 FILLER_17_222
*721 FILLER_17_225
*722 FILLER_17_236
*723 FILLER_17_240
*724 FILLER_17_251
*725 FILLER_17_263
*726 FILLER_17_275
*727 FILLER_17_279
*728 FILLER_17_281
*729 FILLER_17_293
*730 FILLER_17_3
*731 FILLER_17_36
*732 FILLER_17_43
*733 FILLER_17_55
*734 FILLER_17_57
*735 FILLER_17_69
*736 FILLER_17_93
*737 FILLER_18_105
*738 FILLER_18_123
*739 FILLER_18_138
*740 FILLER_18_141
*741 FILLER_18_147
*742 FILLER_18_160
*743 FILLER_18_172
*744 FILLER_18_183
*745 FILLER_18_195
*746 FILLER_18_197
*747 FILLER_18_212
*748 FILLER_18_234
*749 FILLER_18_250
*750 FILLER_18_253
*751 FILLER_18_26
*752 FILLER_18_265
*753 FILLER_18_277
*754 FILLER_18_289
*755 FILLER_18_29
*756 FILLER_18_297
*757 FILLER_18_3
*758 FILLER_18_37
*759 FILLER_18_54
*760 FILLER_18_78
*761 FILLER_18_85
*762 FILLER_18_9
*763 FILLER_18_97
*764 FILLER_19_106
*765 FILLER_19_113
*766 FILLER_19_131
*767 FILLER_19_142
*768 FILLER_19_16
*769 FILLER_19_161
*770 FILLER_19_167
*771 FILLER_19_169
*772 FILLER_19_181
*773 FILLER_19_189
*774 FILLER_19_200
*775 FILLER_19_208
*776 FILLER_19_220
*777 FILLER_19_225
*778 FILLER_19_236
*779 FILLER_19_249
*780 FILLER_19_262
*781 FILLER_19_274
*782 FILLER_19_281
*783 FILLER_19_293
*784 FILLER_19_3
*785 FILLER_19_34
*786 FILLER_19_54
*787 FILLER_19_57
*788 FILLER_19_69
*789 FILLER_19_77
*790 FILLER_19_8
*791 FILLER_19_94
*792 FILLER_1_103
*793 FILLER_1_111
*794 FILLER_1_113
*795 FILLER_1_131
*796 FILLER_1_151
*797 FILLER_1_161
*798 FILLER_1_167
*799 FILLER_1_169
*800 FILLER_1_174
*801 FILLER_1_186
*802 FILLER_1_198
*803 FILLER_1_210
*804 FILLER_1_22
*805 FILLER_1_222
*806 FILLER_1_225
*807 FILLER_1_237
*808 FILLER_1_249
*809 FILLER_1_277
*810 FILLER_1_28
*811 FILLER_1_281
*812 FILLER_1_293
*813 FILLER_1_3
*814 FILLER_1_46
*815 FILLER_1_54
*816 FILLER_1_57
*817 FILLER_1_76
*818 FILLER_1_84
*819 FILLER_20_103
*820 FILLER_20_109
*821 FILLER_20_126
*822 FILLER_20_138
*823 FILLER_20_141
*824 FILLER_20_150
*825 FILLER_20_169
*826 FILLER_20_181
*827 FILLER_20_186
*828 FILLER_20_194
*829 FILLER_20_197
*830 FILLER_20_212
*831 FILLER_20_22
*832 FILLER_20_225
*833 FILLER_20_238
*834 FILLER_20_245
*835 FILLER_20_251
*836 FILLER_20_253
*837 FILLER_20_265
*838 FILLER_20_277
*839 FILLER_20_289
*840 FILLER_20_29
*841 FILLER_20_297
*842 FILLER_20_3
*843 FILLER_20_48
*844 FILLER_20_60
*845 FILLER_20_82
*846 FILLER_20_85
*847 FILLER_21_110
*848 FILLER_21_113
*849 FILLER_21_131
*850 FILLER_21_137
*851 FILLER_21_147
*852 FILLER_21_158
*853 FILLER_21_166
*854 FILLER_21_169
*855 FILLER_21_175
*856 FILLER_21_182
*857 FILLER_21_195
*858 FILLER_21_207
*859 FILLER_21_211
*860 FILLER_21_222
*861 FILLER_21_225
*862 FILLER_21_230
*863 FILLER_21_234
*864 FILLER_21_24
*865 FILLER_21_248
*866 FILLER_21_262
*867 FILLER_21_274
*868 FILLER_21_281
*869 FILLER_21_293
*870 FILLER_21_3
*871 FILLER_21_36
*872 FILLER_21_54
*873 FILLER_21_57
*874 FILLER_21_69
*875 FILLER_21_7
*876 FILLER_21_73
*877 FILLER_21_90
*878 FILLER_22_125
*879 FILLER_22_129
*880 FILLER_22_137
*881 FILLER_22_141
*882 FILLER_22_153
*883 FILLER_22_165
*884 FILLER_22_175
*885 FILLER_22_179
*886 FILLER_22_189
*887 FILLER_22_195
*888 FILLER_22_197
*889 FILLER_22_206
*890 FILLER_22_21
*891 FILLER_22_223
*892 FILLER_22_231
*893 FILLER_22_242
*894 FILLER_22_25
*895 FILLER_22_250
*896 FILLER_22_253
*897 FILLER_22_264
*898 FILLER_22_276
*899 FILLER_22_288
*900 FILLER_22_29
*901 FILLER_22_296
*902 FILLER_22_3
*903 FILLER_22_38
*904 FILLER_22_50
*905 FILLER_22_58
*906 FILLER_22_76
*907 FILLER_22_85
*908 FILLER_22_97
*909 FILLER_23_100
*910 FILLER_23_105
*911 FILLER_23_111
*912 FILLER_23_113
*913 FILLER_23_125
*914 FILLER_23_135
*915 FILLER_23_146
*916 FILLER_23_161
*917 FILLER_23_167
*918 FILLER_23_169
*919 FILLER_23_177
*920 FILLER_23_195
*921 FILLER_23_21
*922 FILLER_23_212
*923 FILLER_23_225
*924 FILLER_23_231
*925 FILLER_23_235
*926 FILLER_23_249
*927 FILLER_23_261
*928 FILLER_23_273
*929 FILLER_23_279
*930 FILLER_23_281
*931 FILLER_23_293
*932 FILLER_23_3
*933 FILLER_23_34
*934 FILLER_23_46
*935 FILLER_23_54
*936 FILLER_23_57
*937 FILLER_23_75
*938 FILLER_23_83
*939 FILLER_23_88
*940 FILLER_24_102
*941 FILLER_24_107
*942 FILLER_24_120
*943 FILLER_24_132
*944 FILLER_24_141
*945 FILLER_24_15
*946 FILLER_24_150
*947 FILLER_24_156
*948 FILLER_24_164
*949 FILLER_24_170
*950 FILLER_24_178
*951 FILLER_24_188
*952 FILLER_24_197
*953 FILLER_24_202
*954 FILLER_24_209
*955 FILLER_24_215
*956 FILLER_24_225
*957 FILLER_24_233
*958 FILLER_24_237
*959 FILLER_24_250
*960 FILLER_24_253
*961 FILLER_24_269
*962 FILLER_24_27
*963 FILLER_24_281
*964 FILLER_24_29
*965 FILLER_24_293
*966 FILLER_24_3
*967 FILLER_24_35
*968 FILLER_24_45
*969 FILLER_24_52
*970 FILLER_24_64
*971 FILLER_24_7
*972 FILLER_24_82
*973 FILLER_24_85
*974 FILLER_24_94
*975 FILLER_25_108
*976 FILLER_25_113
*977 FILLER_25_118
*978 FILLER_25_124
*979 FILLER_25_128
*980 FILLER_25_145
*981 FILLER_25_160
*982 FILLER_25_169
*983 FILLER_25_173
*984 FILLER_25_187
*985 FILLER_25_198
*986 FILLER_25_20
*987 FILLER_25_210
*988 FILLER_25_222
*989 FILLER_25_225
*990 FILLER_25_237
*991 FILLER_25_247
*992 FILLER_25_259
*993 FILLER_25_272
*994 FILLER_25_281
*995 FILLER_25_293
*996 FILLER_25_3
*997 FILLER_25_32
*998 FILLER_25_39
*999 FILLER_25_49
*1000 FILLER_25_55
*1001 FILLER_25_57
*1002 FILLER_25_68
*1003 FILLER_25_8
*1004 FILLER_25_83
*1005 FILLER_25_91
*1006 FILLER_25_97
*1007 FILLER_26_105
*1008 FILLER_26_117
*1009 FILLER_26_128
*1010 FILLER_26_141
*1011 FILLER_26_15
*1012 FILLER_26_153
*1013 FILLER_26_164
*1014 FILLER_26_168
*1015 FILLER_26_182
*1016 FILLER_26_186
*1017 FILLER_26_193
*1018 FILLER_26_197
*1019 FILLER_26_206
*1020 FILLER_26_217
*1021 FILLER_26_223
*1022 FILLER_26_231
*1023 FILLER_26_245
*1024 FILLER_26_251
*1025 FILLER_26_253
*1026 FILLER_26_264
*1027 FILLER_26_27
*1028 FILLER_26_276
*1029 FILLER_26_288
*1030 FILLER_26_29
*1031 FILLER_26_296
*1032 FILLER_26_3
*1033 FILLER_26_41
*1034 FILLER_26_51
*1035 FILLER_26_64
*1036 FILLER_26_74
*1037 FILLER_26_82
*1038 FILLER_26_85
*1039 FILLER_26_97
*1040 FILLER_27_106
*1041 FILLER_27_113
*1042 FILLER_27_118
*1043 FILLER_27_128
*1044 FILLER_27_140
*1045 FILLER_27_147
*1046 FILLER_27_15
*1047 FILLER_27_151
*1048 FILLER_27_162
*1049 FILLER_27_169
*1050 FILLER_27_173
*1051 FILLER_27_177
*1052 FILLER_27_189
*1053 FILLER_27_197
*1054 FILLER_27_207
*1055 FILLER_27_219
*1056 FILLER_27_223
*1057 FILLER_27_225
*1058 FILLER_27_237
*1059 FILLER_27_243
*1060 FILLER_27_254
*1061 FILLER_27_266
*1062 FILLER_27_27
*1063 FILLER_27_278
*1064 FILLER_27_281
*1065 FILLER_27_293
*1066 FILLER_27_3
*1067 FILLER_27_34
*1068 FILLER_27_46
*1069 FILLER_27_54
*1070 FILLER_27_57
*1071 FILLER_27_63
*1072 FILLER_27_71
*1073 FILLER_27_82
*1074 FILLER_27_94
*1075 FILLER_27_98
*1076 FILLER_28_102
*1077 FILLER_28_114
*1078 FILLER_28_125
*1079 FILLER_28_138
*1080 FILLER_28_141
*1081 FILLER_28_15
*1082 FILLER_28_150
*1083 FILLER_28_158
*1084 FILLER_28_169
*1085 FILLER_28_177
*1086 FILLER_28_186
*1087 FILLER_28_194
*1088 FILLER_28_197
*1089 FILLER_28_209
*1090 FILLER_28_221
*1091 FILLER_28_233
*1092 FILLER_28_245
*1093 FILLER_28_251
*1094 FILLER_28_253
*1095 FILLER_28_262
*1096 FILLER_28_27
*1097 FILLER_28_274
*1098 FILLER_28_286
*1099 FILLER_28_29
*1100 FILLER_28_298
*1101 FILLER_28_3
*1102 FILLER_28_35
*1103 FILLER_28_39
*1104 FILLER_28_49
*1105 FILLER_28_53
*1106 FILLER_28_61
*1107 FILLER_28_68
*1108 FILLER_28_80
*1109 FILLER_28_85
*1110 FILLER_28_90
*1111 FILLER_29_109
*1112 FILLER_29_113
*1113 FILLER_29_119
*1114 FILLER_29_130
*1115 FILLER_29_142
*1116 FILLER_29_146
*1117 FILLER_29_15
*1118 FILLER_29_150
*1119 FILLER_29_158
*1120 FILLER_29_162
*1121 FILLER_29_166
*1122 FILLER_29_169
*1123 FILLER_29_180
*1124 FILLER_29_187
*1125 FILLER_29_195
*1126 FILLER_29_206
*1127 FILLER_29_214
*1128 FILLER_29_222
*1129 FILLER_29_225
*1130 FILLER_29_237
*1131 FILLER_29_249
*1132 FILLER_29_261
*1133 FILLER_29_27
*1134 FILLER_29_273
*1135 FILLER_29_279
*1136 FILLER_29_281
*1137 FILLER_29_293
*1138 FILLER_29_3
*1139 FILLER_29_39
*1140 FILLER_29_51
*1141 FILLER_29_55
*1142 FILLER_29_57
*1143 FILLER_29_68
*1144 FILLER_29_74
*1145 FILLER_29_82
*1146 FILLER_29_89
*1147 FILLER_29_97
*1148 FILLER_2_101
*1149 FILLER_2_120
*1150 FILLER_2_131
*1151 FILLER_2_138
*1152 FILLER_2_141
*1153 FILLER_2_152
*1154 FILLER_2_160
*1155 FILLER_2_164
*1156 FILLER_2_171
*1157 FILLER_2_183
*1158 FILLER_2_195
*1159 FILLER_2_197
*1160 FILLER_2_209
*1161 FILLER_2_22
*1162 FILLER_2_221
*1163 FILLER_2_233
*1164 FILLER_2_245
*1165 FILLER_2_251
*1166 FILLER_2_253
*1167 FILLER_2_265
*1168 FILLER_2_277
*1169 FILLER_2_289
*1170 FILLER_2_29
*1171 FILLER_2_297
*1172 FILLER_2_3
*1173 FILLER_2_41
*1174 FILLER_2_47
*1175 FILLER_2_65
*1176 FILLER_2_77
*1177 FILLER_2_83
*1178 FILLER_2_85
*1179 FILLER_2_97
*1180 FILLER_30_107
*1181 FILLER_30_119
*1182 FILLER_30_131
*1183 FILLER_30_139
*1184 FILLER_30_141
*1185 FILLER_30_15
*1186 FILLER_30_153
*1187 FILLER_30_165
*1188 FILLER_30_171
*1189 FILLER_30_181
*1190 FILLER_30_190
*1191 FILLER_30_197
*1192 FILLER_30_208
*1193 FILLER_30_219
*1194 FILLER_30_231
*1195 FILLER_30_243
*1196 FILLER_30_251
*1197 FILLER_30_253
*1198 FILLER_30_261
*1199 FILLER_30_27
*1200 FILLER_30_275
*1201 FILLER_30_287
*1202 FILLER_30_29
*1203 FILLER_30_3
*1204 FILLER_30_41
*1205 FILLER_30_53
*1206 FILLER_30_68
*1207 FILLER_30_82
*1208 FILLER_30_85
*1209 FILLER_30_96
*1210 FILLER_31_111
*1211 FILLER_31_113
*1212 FILLER_31_131
*1213 FILLER_31_142
*1214 FILLER_31_15
*1215 FILLER_31_150
*1216 FILLER_31_160
*1217 FILLER_31_169
*1218 FILLER_31_174
*1219 FILLER_31_186
*1220 FILLER_31_198
*1221 FILLER_31_210
*1222 FILLER_31_222
*1223 FILLER_31_225
*1224 FILLER_31_237
*1225 FILLER_31_249
*1226 FILLER_31_261
*1227 FILLER_31_27
*1228 FILLER_31_273
*1229 FILLER_31_279
*1230 FILLER_31_281
*1231 FILLER_31_293
*1232 FILLER_31_3
*1233 FILLER_31_35
*1234 FILLER_31_45
*1235 FILLER_31_52
*1236 FILLER_31_57
*1237 FILLER_31_87
*1238 FILLER_31_99
*1239 FILLER_32_109
*1240 FILLER_32_121
*1241 FILLER_32_133
*1242 FILLER_32_139
*1243 FILLER_32_141
*1244 FILLER_32_15
*1245 FILLER_32_152
*1246 FILLER_32_164
*1247 FILLER_32_168
*1248 FILLER_32_172
*1249 FILLER_32_183
*1250 FILLER_32_194
*1251 FILLER_32_197
*1252 FILLER_32_212
*1253 FILLER_32_224
*1254 FILLER_32_232
*1255 FILLER_32_248
*1256 FILLER_32_253
*1257 FILLER_32_26
*1258 FILLER_32_265
*1259 FILLER_32_277
*1260 FILLER_32_289
*1261 FILLER_32_29
*1262 FILLER_32_297
*1263 FILLER_32_3
*1264 FILLER_32_41
*1265 FILLER_32_52
*1266 FILLER_32_59
*1267 FILLER_32_71
*1268 FILLER_32_78
*1269 FILLER_32_85
*1270 FILLER_32_97
*1271 FILLER_33_103
*1272 FILLER_33_111
*1273 FILLER_33_113
*1274 FILLER_33_122
*1275 FILLER_33_134
*1276 FILLER_33_142
*1277 FILLER_33_15
*1278 FILLER_33_150
*1279 FILLER_33_162
*1280 FILLER_33_169
*1281 FILLER_33_181
*1282 FILLER_33_193
*1283 FILLER_33_205
*1284 FILLER_33_217
*1285 FILLER_33_223
*1286 FILLER_33_225
*1287 FILLER_33_237
*1288 FILLER_33_249
*1289 FILLER_33_261
*1290 FILLER_33_27
*1291 FILLER_33_273
*1292 FILLER_33_279
*1293 FILLER_33_281
*1294 FILLER_33_293
*1295 FILLER_33_3
*1296 FILLER_33_39
*1297 FILLER_33_51
*1298 FILLER_33_55
*1299 FILLER_33_57
*1300 FILLER_33_68
*1301 FILLER_33_79
*1302 FILLER_33_83
*1303 FILLER_33_91
*1304 FILLER_34_106
*1305 FILLER_34_118
*1306 FILLER_34_130
*1307 FILLER_34_138
*1308 FILLER_34_141
*1309 FILLER_34_15
*1310 FILLER_34_153
*1311 FILLER_34_165
*1312 FILLER_34_177
*1313 FILLER_34_192
*1314 FILLER_34_197
*1315 FILLER_34_209
*1316 FILLER_34_222
*1317 FILLER_34_234
*1318 FILLER_34_246
*1319 FILLER_34_253
*1320 FILLER_34_265
*1321 FILLER_34_27
*1322 FILLER_34_277
*1323 FILLER_34_289
*1324 FILLER_34_29
*1325 FILLER_34_297
*1326 FILLER_34_3
*1327 FILLER_34_41
*1328 FILLER_34_46
*1329 FILLER_34_61
*1330 FILLER_34_73
*1331 FILLER_34_81
*1332 FILLER_34_85
*1333 FILLER_34_97
*1334 FILLER_35_104
*1335 FILLER_35_113
*1336 FILLER_35_121
*1337 FILLER_35_130
*1338 FILLER_35_142
*1339 FILLER_35_148
*1340 FILLER_35_15
*1341 FILLER_35_159
*1342 FILLER_35_167
*1343 FILLER_35_169
*1344 FILLER_35_180
*1345 FILLER_35_192
*1346 FILLER_35_204
*1347 FILLER_35_216
*1348 FILLER_35_225
*1349 FILLER_35_237
*1350 FILLER_35_249
*1351 FILLER_35_261
*1352 FILLER_35_27
*1353 FILLER_35_273
*1354 FILLER_35_279
*1355 FILLER_35_281
*1356 FILLER_35_293
*1357 FILLER_35_3
*1358 FILLER_35_39
*1359 FILLER_35_47
*1360 FILLER_35_54
*1361 FILLER_35_57
*1362 FILLER_35_62
*1363 FILLER_35_70
*1364 FILLER_35_76
*1365 FILLER_35_89
*1366 FILLER_36_104
*1367 FILLER_36_116
*1368 FILLER_36_127
*1369 FILLER_36_138
*1370 FILLER_36_141
*1371 FILLER_36_147
*1372 FILLER_36_15
*1373 FILLER_36_151
*1374 FILLER_36_163
*1375 FILLER_36_171
*1376 FILLER_36_183
*1377 FILLER_36_195
*1378 FILLER_36_197
*1379 FILLER_36_209
*1380 FILLER_36_221
*1381 FILLER_36_233
*1382 FILLER_36_245
*1383 FILLER_36_251
*1384 FILLER_36_253
*1385 FILLER_36_265
*1386 FILLER_36_27
*1387 FILLER_36_277
*1388 FILLER_36_289
*1389 FILLER_36_29
*1390 FILLER_36_297
*1391 FILLER_36_3
*1392 FILLER_36_33
*1393 FILLER_36_37
*1394 FILLER_36_49
*1395 FILLER_36_57
*1396 FILLER_36_61
*1397 FILLER_36_73
*1398 FILLER_36_81
*1399 FILLER_36_85
*1400 FILLER_36_93
*1401 FILLER_37_108
*1402 FILLER_37_113
*1403 FILLER_37_121
*1404 FILLER_37_127
*1405 FILLER_37_139
*1406 FILLER_37_151
*1407 FILLER_37_163
*1408 FILLER_37_167
*1409 FILLER_37_169
*1410 FILLER_37_18
*1411 FILLER_37_181
*1412 FILLER_37_193
*1413 FILLER_37_205
*1414 FILLER_37_217
*1415 FILLER_37_223
*1416 FILLER_37_225
*1417 FILLER_37_237
*1418 FILLER_37_249
*1419 FILLER_37_261
*1420 FILLER_37_273
*1421 FILLER_37_279
*1422 FILLER_37_281
*1423 FILLER_37_293
*1424 FILLER_37_3
*1425 FILLER_37_30
*1426 FILLER_37_43
*1427 FILLER_37_50
*1428 FILLER_37_57
*1429 FILLER_37_69
*1430 FILLER_37_79
*1431 FILLER_37_91
*1432 FILLER_37_97
*1433 FILLER_38_102
*1434 FILLER_38_114
*1435 FILLER_38_122
*1436 FILLER_38_127
*1437 FILLER_38_139
*1438 FILLER_38_141
*1439 FILLER_38_145
*1440 FILLER_38_15
*1441 FILLER_38_155
*1442 FILLER_38_166
*1443 FILLER_38_178
*1444 FILLER_38_190
*1445 FILLER_38_197
*1446 FILLER_38_209
*1447 FILLER_38_221
*1448 FILLER_38_233
*1449 FILLER_38_245
*1450 FILLER_38_251
*1451 FILLER_38_253
*1452 FILLER_38_265
*1453 FILLER_38_27
*1454 FILLER_38_277
*1455 FILLER_38_289
*1456 FILLER_38_29
*1457 FILLER_38_297
*1458 FILLER_38_3
*1459 FILLER_38_41
*1460 FILLER_38_53
*1461 FILLER_38_65
*1462 FILLER_38_77
*1463 FILLER_38_83
*1464 FILLER_38_85
*1465 FILLER_38_90
*1466 FILLER_39_104
*1467 FILLER_39_113
*1468 FILLER_39_12
*1469 FILLER_39_124
*1470 FILLER_39_132
*1471 FILLER_39_140
*1472 FILLER_39_152
*1473 FILLER_39_164
*1474 FILLER_39_169
*1475 FILLER_39_181
*1476 FILLER_39_193
*1477 FILLER_39_197
*1478 FILLER_39_208
*1479 FILLER_39_220
*1480 FILLER_39_225
*1481 FILLER_39_237
*1482 FILLER_39_24
*1483 FILLER_39_249
*1484 FILLER_39_261
*1485 FILLER_39_273
*1486 FILLER_39_279
*1487 FILLER_39_281
*1488 FILLER_39_293
*1489 FILLER_39_3
*1490 FILLER_39_32
*1491 FILLER_39_38
*1492 FILLER_39_50
*1493 FILLER_39_57
*1494 FILLER_39_69
*1495 FILLER_39_77
*1496 FILLER_39_83
*1497 FILLER_39_89
*1498 FILLER_39_97
*1499 FILLER_3_105
*1500 FILLER_3_111
*1501 FILLER_3_113
*1502 FILLER_3_131
*1503 FILLER_3_15
*1504 FILLER_3_151
*1505 FILLER_3_164
*1506 FILLER_3_169
*1507 FILLER_3_181
*1508 FILLER_3_193
*1509 FILLER_3_205
*1510 FILLER_3_217
*1511 FILLER_3_223
*1512 FILLER_3_225
*1513 FILLER_3_237
*1514 FILLER_3_249
*1515 FILLER_3_261
*1516 FILLER_3_273
*1517 FILLER_3_279
*1518 FILLER_3_281
*1519 FILLER_3_293
*1520 FILLER_3_3
*1521 FILLER_3_36
*1522 FILLER_3_48
*1523 FILLER_3_57
*1524 FILLER_3_69
*1525 FILLER_3_93
*1526 FILLER_40_104
*1527 FILLER_40_116
*1528 FILLER_40_128
*1529 FILLER_40_141
*1530 FILLER_40_15
*1531 FILLER_40_153
*1532 FILLER_40_166
*1533 FILLER_40_178
*1534 FILLER_40_190
*1535 FILLER_40_194
*1536 FILLER_40_197
*1537 FILLER_40_209
*1538 FILLER_40_221
*1539 FILLER_40_233
*1540 FILLER_40_245
*1541 FILLER_40_251
*1542 FILLER_40_253
*1543 FILLER_40_265
*1544 FILLER_40_27
*1545 FILLER_40_277
*1546 FILLER_40_289
*1547 FILLER_40_29
*1548 FILLER_40_297
*1549 FILLER_40_3
*1550 FILLER_40_38
*1551 FILLER_40_46
*1552 FILLER_40_58
*1553 FILLER_40_66
*1554 FILLER_40_70
*1555 FILLER_40_82
*1556 FILLER_40_85
*1557 FILLER_40_93
*1558 FILLER_41_109
*1559 FILLER_41_113
*1560 FILLER_41_118
*1561 FILLER_41_130
*1562 FILLER_41_142
*1563 FILLER_41_15
*1564 FILLER_41_154
*1565 FILLER_41_166
*1566 FILLER_41_169
*1567 FILLER_41_181
*1568 FILLER_41_193
*1569 FILLER_41_20
*1570 FILLER_41_205
*1571 FILLER_41_217
*1572 FILLER_41_223
*1573 FILLER_41_225
*1574 FILLER_41_237
*1575 FILLER_41_249
*1576 FILLER_41_261
*1577 FILLER_41_273
*1578 FILLER_41_279
*1579 FILLER_41_281
*1580 FILLER_41_293
*1581 FILLER_41_3
*1582 FILLER_41_32
*1583 FILLER_41_44
*1584 FILLER_41_57
*1585 FILLER_41_69
*1586 FILLER_41_76
*1587 FILLER_41_88
*1588 FILLER_41_96
*1589 FILLER_42_101
*1590 FILLER_42_109
*1591 FILLER_42_120
*1592 FILLER_42_132
*1593 FILLER_42_141
*1594 FILLER_42_147
*1595 FILLER_42_15
*1596 FILLER_42_155
*1597 FILLER_42_167
*1598 FILLER_42_179
*1599 FILLER_42_187
*1600 FILLER_42_195
*1601 FILLER_42_197
*1602 FILLER_42_209
*1603 FILLER_42_221
*1604 FILLER_42_233
*1605 FILLER_42_245
*1606 FILLER_42_251
*1607 FILLER_42_253
*1608 FILLER_42_265
*1609 FILLER_42_27
*1610 FILLER_42_277
*1611 FILLER_42_289
*1612 FILLER_42_29
*1613 FILLER_42_297
*1614 FILLER_42_3
*1615 FILLER_42_41
*1616 FILLER_42_49
*1617 FILLER_42_61
*1618 FILLER_42_73
*1619 FILLER_42_81
*1620 FILLER_42_85
*1621 FILLER_42_97
*1622 FILLER_43_100
*1623 FILLER_43_110
*1624 FILLER_43_113
*1625 FILLER_43_125
*1626 FILLER_43_131
*1627 FILLER_43_141
*1628 FILLER_43_15
*1629 FILLER_43_153
*1630 FILLER_43_165
*1631 FILLER_43_169
*1632 FILLER_43_181
*1633 FILLER_43_193
*1634 FILLER_43_205
*1635 FILLER_43_217
*1636 FILLER_43_223
*1637 FILLER_43_225
*1638 FILLER_43_237
*1639 FILLER_43_249
*1640 FILLER_43_261
*1641 FILLER_43_27
*1642 FILLER_43_273
*1643 FILLER_43_279
*1644 FILLER_43_281
*1645 FILLER_43_293
*1646 FILLER_43_3
*1647 FILLER_43_36
*1648 FILLER_43_49
*1649 FILLER_43_55
*1650 FILLER_43_57
*1651 FILLER_43_72
*1652 FILLER_43_84
*1653 FILLER_43_96
*1654 FILLER_44_100
*1655 FILLER_44_112
*1656 FILLER_44_124
*1657 FILLER_44_136
*1658 FILLER_44_141
*1659 FILLER_44_15
*1660 FILLER_44_153
*1661 FILLER_44_165
*1662 FILLER_44_177
*1663 FILLER_44_189
*1664 FILLER_44_195
*1665 FILLER_44_197
*1666 FILLER_44_209
*1667 FILLER_44_221
*1668 FILLER_44_233
*1669 FILLER_44_245