*SPEF "ieee 1481-1999"
*DESIGN "frog"
*DATE "11:11:11 Fri 11 11, 1111"
*VENDOR "OpenRCX"
*PROGRAM "Parallel Extraction"
*VERSION "1.0"
*DESIGN_FLOW "NAME_SCOPE LOCAL" "PIN_CAP NONE"
*DIVIDER /
*DELIMITER :
*BUS_DELIMITER []
*T_UNIT 1 NS
*C_UNIT 1 PF
*R_UNIT 1 OHM
*L_UNIT 1 HENRY

*NAME_MAP
*1 io_in[0]
*2 io_in[1]
*3 io_in[2]
*4 io_in[3]
*5 io_in[4]
*6 io_in[5]
*7 io_in[6]
*8 io_in[7]
*9 io_out[0]
*10 io_out[1]
*11 io_out[2]
*12 io_out[3]
*13 io_out[4]
*14 io_out[5]
*15 io_out[6]
*16 io_out[7]
*19 _000_
*20 _001_
*21 _002_
*22 _003_
*23 _004_
*24 _005_
*25 _006_
*26 _007_
*27 _008_
*28 _009_
*29 _010_
*30 _011_
*31 _012_
*32 _013_
*33 _014_
*34 _015_
*35 _016_
*36 _017_
*37 _018_
*38 _019_
*39 _020_
*40 _021_
*41 _022_
*42 _023_
*43 _024_
*44 _025_
*45 _026_
*46 _027_
*47 _028_
*48 _029_
*49 _030_
*50 _031_
*51 _032_
*52 _033_
*53 _034_
*54 _035_
*55 _036_
*56 _037_
*57 _038_
*58 _039_
*59 _040_
*60 _041_
*61 _042_
*62 _043_
*63 _044_
*64 _045_
*65 _046_
*66 _047_
*67 _048_
*68 _049_
*69 _050_
*70 _051_
*71 _052_
*72 _053_
*73 _054_
*74 _055_
*75 _056_
*76 _057_
*77 _058_
*78 _059_
*79 _060_
*80 _061_
*81 _062_
*82 _063_
*83 _064_
*84 _065_
*85 _066_
*86 _067_
*87 _068_
*88 _069_
*89 _070_
*90 _071_
*91 _072_
*92 _073_
*93 _074_
*94 _075_
*95 _076_
*96 _077_
*97 _078_
*98 _079_
*99 _080_
*100 _081_
*101 _082_
*102 _083_
*103 _084_
*104 _085_
*105 _086_
*106 _087_
*107 _088_
*108 _089_
*109 _090_
*110 _091_
*111 _092_
*112 _093_
*113 _094_
*114 _095_
*115 _096_
*116 _097_
*117 _098_
*118 _099_
*119 _100_
*120 _101_
*121 _102_
*122 _103_
*123 _104_
*124 _105_
*125 _106_
*126 _107_
*127 _108_
*128 _109_
*129 _110_
*130 _111_
*131 _112_
*132 _113_
*133 _114_
*134 _115_
*135 _116_
*136 _117_
*137 _118_
*138 _119_
*139 _120_
*140 _121_
*141 _122_
*142 _123_
*143 _124_
*144 _125_
*145 _126_
*146 _127_
*147 _128_
*148 _129_
*149 _130_
*150 _131_
*151 _132_
*152 _133_
*153 _134_
*154 _135_
*155 _136_
*156 _137_
*157 _138_
*158 _139_
*159 _140_
*160 _141_
*161 _142_
*162 _143_
*163 _144_
*164 _145_
*165 _146_
*166 _147_
*167 _148_
*168 _149_
*169 _150_
*170 _151_
*171 _152_
*172 _153_
*173 _154_
*174 _155_
*175 _156_
*176 _157_
*177 _158_
*178 _159_
*179 _160_
*180 _161_
*181 _162_
*182 _163_
*183 _164_
*184 _165_
*185 _166_
*186 _167_
*187 _168_
*188 _169_
*189 _170_
*190 _171_
*191 _172_
*192 _173_
*193 _174_
*194 _175_
*195 _176_
*196 _177_
*197 _178_
*198 _179_
*199 _180_
*200 _181_
*201 _182_
*202 _183_
*203 _184_
*204 _185_
*205 _186_
*206 _187_
*207 _188_
*208 _189_
*209 _190_
*210 _191_
*211 _192_
*212 _193_
*213 _194_
*214 _195_
*215 _196_
*216 _197_
*217 _198_
*218 _199_
*219 _200_
*220 _201_
*221 _202_
*222 _203_
*223 _204_
*224 _205_
*225 _206_
*226 _207_
*227 _208_
*228 _209_
*229 _210_
*230 _211_
*231 _212_
*232 _213_
*233 _214_
*234 _215_
*235 _216_
*236 _217_
*237 _218_
*238 _219_
*239 _220_
*240 _221_
*241 _222_
*242 _223_
*243 _224_
*244 _225_
*245 _226_
*246 _227_
*247 _228_
*248 _229_
*249 _230_
*250 _231_
*251 _232_
*252 _233_
*253 _234_
*254 _235_
*255 _236_
*256 _237_
*257 _238_
*258 _239_
*259 _240_
*260 _241_
*261 _242_
*262 _243_
*263 _244_
*264 _245_
*265 _246_
*266 _247_
*267 _248_
*268 _249_
*269 _250_
*270 _251_
*271 _252_
*272 _253_
*273 _254_
*274 _255_
*275 _256_
*276 _257_
*277 _258_
*278 _259_
*279 _260_
*280 _261_
*281 _262_
*282 _263_
*283 _264_
*284 _265_
*285 _266_
*286 _267_
*287 _268_
*288 _269_
*289 _270_
*290 clknet_0_io_in[0]
*291 clknet_2_0__leaf_io_in[0]
*292 clknet_2_1__leaf_io_in[0]
*293 clknet_2_2__leaf_io_in[0]
*294 clknet_2_3__leaf_io_in[0]
*295 net1
*296 net2
*297 net3
*298 net4
*299 net5
*300 net6
*301 opcode_lsb\[0\]
*302 opcode_lsb\[1\]
*303 opcode_lsb\[2\]
*304 pc\[0\]
*305 pc\[1\]
*306 pc\[2\]
*307 pc\[3\]
*308 pc\[4\]
*309 pc\[5\]
*310 pc\[6\]
*311 reg_a\[0\]
*312 reg_a\[1\]
*313 reg_a\[2\]
*314 reg_a\[3\]
*315 reg_b\[0\]
*316 reg_b\[1\]
*317 reg_b\[2\]
*318 reg_b\[3\]
*319 state\[0\]
*320 state\[1\]
*321 state\[2\]
*322 state\[3\]
*323 state\[4\]
*324 state\[5\]
*325 tmp\[0\]
*326 tmp\[1\]
*327 tmp\[2\]
*328 tmp\[3\]
*329 tmp\[4\]
*330 tmp\[5\]
*331 tmp\[6\]
*332 wcyc
*333 FILLER_0_109
*334 FILLER_0_113
*335 FILLER_0_125
*336 FILLER_0_137
*337 FILLER_0_141
*338 FILLER_0_153
*339 FILLER_0_165
*340 FILLER_0_169
*341 FILLER_0_181
*342 FILLER_0_193
*343 FILLER_0_197
*344 FILLER_0_209
*345 FILLER_0_221
*346 FILLER_0_225
*347 FILLER_0_237
*348 FILLER_0_249
*349 FILLER_0_253
*350 FILLER_0_26
*351 FILLER_0_265
*352 FILLER_0_277
*353 FILLER_0_281
*354 FILLER_0_29
*355 FILLER_0_293
*356 FILLER_0_3
*357 FILLER_0_54
*358 FILLER_0_57
*359 FILLER_0_69
*360 FILLER_0_81
*361 FILLER_0_85
*362 FILLER_0_97
*363 FILLER_10_101
*364 FILLER_10_106
*365 FILLER_10_113
*366 FILLER_10_122
*367 FILLER_10_134
*368 FILLER_10_141
*369 FILLER_10_147
*370 FILLER_10_153
*371 FILLER_10_160
*372 FILLER_10_172
*373 FILLER_10_184
*374 FILLER_10_197
*375 FILLER_10_209
*376 FILLER_10_221
*377 FILLER_10_233
*378 FILLER_10_245
*379 FILLER_10_251
*380 FILLER_10_253
*381 FILLER_10_26
*382 FILLER_10_265
*383 FILLER_10_277
*384 FILLER_10_289
*385 FILLER_10_29
*386 FILLER_10_297
*387 FILLER_10_3
*388 FILLER_10_41
*389 FILLER_10_64
*390 FILLER_10_68
*391 FILLER_10_77
*392 FILLER_10_83
*393 FILLER_10_85
*394 FILLER_10_93
*395 FILLER_11_100
*396 FILLER_11_108
*397 FILLER_11_113
*398 FILLER_11_124
*399 FILLER_11_139
*400 FILLER_11_147
*401 FILLER_11_155
*402 FILLER_11_167
*403 FILLER_11_169
*404 FILLER_11_181
*405 FILLER_11_193
*406 FILLER_11_205
*407 FILLER_11_21
*408 FILLER_11_217
*409 FILLER_11_223
*410 FILLER_11_225
*411 FILLER_11_237
*412 FILLER_11_249
*413 FILLER_11_261
*414 FILLER_11_273
*415 FILLER_11_279
*416 FILLER_11_281
*417 FILLER_11_293
*418 FILLER_11_3
*419 FILLER_11_54
*420 FILLER_11_57
*421 FILLER_11_61
*422 FILLER_11_65
*423 FILLER_11_78
*424 FILLER_11_82
*425 FILLER_11_9
*426 FILLER_11_92
*427 FILLER_12_104
*428 FILLER_12_115
*429 FILLER_12_125
*430 FILLER_12_138
*431 FILLER_12_141
*432 FILLER_12_155
*433 FILLER_12_167
*434 FILLER_12_176
*435 FILLER_12_188
*436 FILLER_12_197
*437 FILLER_12_209
*438 FILLER_12_221
*439 FILLER_12_233
*440 FILLER_12_245
*441 FILLER_12_25
*442 FILLER_12_251
*443 FILLER_12_253
*444 FILLER_12_265
*445 FILLER_12_277
*446 FILLER_12_289
*447 FILLER_12_29
*448 FILLER_12_297
*449 FILLER_12_3
*450 FILLER_12_53
*451 FILLER_12_78
*452 FILLER_12_85
*453 FILLER_12_96
*454 FILLER_13_104
*455 FILLER_13_113
*456 FILLER_13_119
*457 FILLER_13_126
*458 FILLER_13_133
*459 FILLER_13_144
*460 FILLER_13_156
*461 FILLER_13_169
*462 FILLER_13_181
*463 FILLER_13_193
*464 FILLER_13_205
*465 FILLER_13_217
*466 FILLER_13_223
*467 FILLER_13_225
*468 FILLER_13_237
*469 FILLER_13_249
*470 FILLER_13_25
*471 FILLER_13_261
*472 FILLER_13_273
*473 FILLER_13_279
*474 FILLER_13_281
*475 FILLER_13_293
*476 FILLER_13_3
*477 FILLER_13_54
*478 FILLER_13_57
*479 FILLER_13_65
*480 FILLER_13_78
*481 FILLER_13_85
*482 FILLER_13_93
*483 FILLER_13_97
*484 FILLER_14_107
*485 FILLER_14_114
*486 FILLER_14_127
*487 FILLER_14_138
*488 FILLER_14_141
*489 FILLER_14_156
*490 FILLER_14_168
*491 FILLER_14_180
*492 FILLER_14_192
*493 FILLER_14_197
*494 FILLER_14_209
*495 FILLER_14_221
*496 FILLER_14_233
*497 FILLER_14_245
*498 FILLER_14_251
*499 FILLER_14_253
*500 FILLER_14_26
*501 FILLER_14_265
*502 FILLER_14_277
*503 FILLER_14_289
*504 FILLER_14_29
*505 FILLER_14_297
*506 FILLER_14_3
*507 FILLER_14_55
*508 FILLER_14_79
*509 FILLER_14_83
*510 FILLER_14_85
*511 FILLER_14_96
*512 FILLER_15_106
*513 FILLER_15_113
*514 FILLER_15_117
*515 FILLER_15_126
*516 FILLER_15_134
*517 FILLER_15_143
*518 FILLER_15_151
*519 FILLER_15_157
*520 FILLER_15_163
*521 FILLER_15_167
*522 FILLER_15_169
*523 FILLER_15_181
*524 FILLER_15_193
*525 FILLER_15_205
*526 FILLER_15_217
*527 FILLER_15_223
*528 FILLER_15_225
*529 FILLER_15_237
*530 FILLER_15_249
*531 FILLER_15_261
*532 FILLER_15_27
*533 FILLER_15_273
*534 FILLER_15_279
*535 FILLER_15_281
*536 FILLER_15_293
*537 FILLER_15_3
*538 FILLER_15_54
*539 FILLER_15_57
*540 FILLER_15_70
*541 FILLER_15_79
*542 FILLER_15_96
*543 FILLER_16_103
*544 FILLER_16_113
*545 FILLER_16_122
*546 FILLER_16_133
*547 FILLER_16_139
*548 FILLER_16_141
*549 FILLER_16_149
*550 FILLER_16_157
*551 FILLER_16_169
*552 FILLER_16_181
*553 FILLER_16_193
*554 FILLER_16_197
*555 FILLER_16_209
*556 FILLER_16_221
*557 FILLER_16_233
*558 FILLER_16_245
*559 FILLER_16_251
*560 FILLER_16_253
*561 FILLER_16_26
*562 FILLER_16_265
*563 FILLER_16_277
*564 FILLER_16_289
*565 FILLER_16_29
*566 FILLER_16_297
*567 FILLER_16_3
*568 FILLER_16_54
*569 FILLER_16_63
*570 FILLER_16_71
*571 FILLER_16_81
*572 FILLER_16_85
*573 FILLER_16_93
*574 FILLER_16_99
*575 FILLER_17_103
*576 FILLER_17_110
*577 FILLER_17_113
*578 FILLER_17_117
*579 FILLER_17_121
*580 FILLER_17_129
*581 FILLER_17_138
*582 FILLER_17_147
*583 FILLER_17_155
*584 FILLER_17_161
*585 FILLER_17_167
*586 FILLER_17_169
*587 FILLER_17_177
*588 FILLER_17_189
*589 FILLER_17_201
*590 FILLER_17_213
*591 FILLER_17_221
*592 FILLER_17_225
*593 FILLER_17_237
*594 FILLER_17_249
*595 FILLER_17_261
*596 FILLER_17_273
*597 FILLER_17_279
*598 FILLER_17_281
*599 FILLER_17_293
*600 FILLER_17_3
*601 FILLER_17_34
*602 FILLER_17_46
*603 FILLER_17_50
*604 FILLER_17_54
*605 FILLER_17_57
*606 FILLER_17_68
*607 FILLER_17_79
*608 FILLER_17_88
*609 FILLER_17_92
*610 FILLER_17_96
*611 FILLER_18_103
*612 FILLER_18_114
*613 FILLER_18_127
*614 FILLER_18_138
*615 FILLER_18_141
*616 FILLER_18_15
*617 FILLER_18_150
*618 FILLER_18_163
*619 FILLER_18_175
*620 FILLER_18_187
*621 FILLER_18_195
*622 FILLER_18_197
*623 FILLER_18_209
*624 FILLER_18_221
*625 FILLER_18_233
*626 FILLER_18_245
*627 FILLER_18_251
*628 FILLER_18_253
*629 FILLER_18_265
*630 FILLER_18_27
*631 FILLER_18_277
*632 FILLER_18_289
*633 FILLER_18_29
*634 FILLER_18_297
*635 FILLER_18_3
*636 FILLER_18_41
*637 FILLER_18_53
*638 FILLER_18_61
*639 FILLER_18_67
*640 FILLER_18_71
*641 FILLER_18_75
*642 FILLER_18_82
*643 FILLER_18_85
*644 FILLER_18_93
*645 FILLER_19_105
*646 FILLER_19_111
*647 FILLER_19_113
*648 FILLER_19_118
*649 FILLER_19_122
*650 FILLER_19_128
*651 FILLER_19_137
*652 FILLER_19_143
*653 FILLER_19_149
*654 FILLER_19_162
*655 FILLER_19_169
*656 FILLER_19_179
*657 FILLER_19_190
*658 FILLER_19_202
*659 FILLER_19_21
*660 FILLER_19_214
*661 FILLER_19_222
*662 FILLER_19_225
*663 FILLER_19_237
*664 FILLER_19_249
*665 FILLER_19_261
*666 FILLER_19_273
*667 FILLER_19_279
*668 FILLER_19_281
*669 FILLER_19_29
*670 FILLER_19_293
*671 FILLER_19_3
*672 FILLER_19_34
*673 FILLER_19_42
*674 FILLER_19_53
*675 FILLER_19_57
*676 FILLER_19_63
*677 FILLER_19_70
*678 FILLER_19_79
*679 FILLER_19_9
*680 FILLER_19_91
*681 FILLER_19_95
*682 FILLER_1_105
*683 FILLER_1_111
*684 FILLER_1_113
*685 FILLER_1_125
*686 FILLER_1_13
*687 FILLER_1_137
*688 FILLER_1_149
*689 FILLER_1_161
*690 FILLER_1_167
*691 FILLER_1_169
*692 FILLER_1_181
*693 FILLER_1_193
*694 FILLER_1_205
*695 FILLER_1_217
*696 FILLER_1_223
*697 FILLER_1_225
*698 FILLER_1_237
*699 FILLER_1_249
*700 FILLER_1_261
*701 FILLER_1_273
*702 FILLER_1_279
*703 FILLER_1_281
*704 FILLER_1_293
*705 FILLER_1_3
*706 FILLER_1_37
*707 FILLER_1_49
*708 FILLER_1_55
*709 FILLER_1_57
*710 FILLER_1_81
*711 FILLER_1_9
*712 FILLER_1_93
*713 FILLER_20_104
*714 FILLER_20_119
*715 FILLER_20_127
*716 FILLER_20_133
*717 FILLER_20_139
*718 FILLER_20_14
*719 FILLER_20_141
*720 FILLER_20_150
*721 FILLER_20_157
*722 FILLER_20_169
*723 FILLER_20_181
*724 FILLER_20_193
*725 FILLER_20_197
*726 FILLER_20_209
*727 FILLER_20_22
*728 FILLER_20_221
*729 FILLER_20_233
*730 FILLER_20_245
*731 FILLER_20_251
*732 FILLER_20_253
*733 FILLER_20_26
*734 FILLER_20_265
*735 FILLER_20_277
*736 FILLER_20_289
*737 FILLER_20_29
*738 FILLER_20_297
*739 FILLER_20_3
*740 FILLER_20_38
*741 FILLER_20_51
*742 FILLER_20_68
*743 FILLER_20_74
*744 FILLER_20_78
*745 FILLER_20_85
*746 FILLER_20_96
*747 FILLER_21_101
*748 FILLER_21_110
*749 FILLER_21_113
*750 FILLER_21_124
*751 FILLER_21_134
*752 FILLER_21_14
*753 FILLER_21_146
*754 FILLER_21_157
*755 FILLER_21_164
*756 FILLER_21_169
*757 FILLER_21_181
*758 FILLER_21_193
*759 FILLER_21_20
*760 FILLER_21_205
*761 FILLER_21_217
*762 FILLER_21_223
*763 FILLER_21_225
*764 FILLER_21_237
*765 FILLER_21_249
*766 FILLER_21_261
*767 FILLER_21_273
*768 FILLER_21_279
*769 FILLER_21_281
*770 FILLER_21_293
*771 FILLER_21_3
*772 FILLER_21_30
*773 FILLER_21_43
*774 FILLER_21_55
*775 FILLER_21_57
*776 FILLER_21_63
*777 FILLER_21_85
*778 FILLER_21_93
*779 FILLER_22_104
*780 FILLER_22_116
*781 FILLER_22_124
*782 FILLER_22_132
*783 FILLER_22_141
*784 FILLER_22_150
*785 FILLER_22_160
*786 FILLER_22_172
*787 FILLER_22_184
*788 FILLER_22_197
*789 FILLER_22_20
*790 FILLER_22_209
*791 FILLER_22_221
*792 FILLER_22_233
*793 FILLER_22_245
*794 FILLER_22_251
*795 FILLER_22_253
*796 FILLER_22_265
*797 FILLER_22_277
*798 FILLER_22_289
*799 FILLER_22_29
*800 FILLER_22_297
*801 FILLER_22_3
*802 FILLER_22_40
*803 FILLER_22_46
*804 FILLER_22_56
*805 FILLER_22_64
*806 FILLER_22_71
*807 FILLER_22_75
*808 FILLER_22_8
*809 FILLER_22_82
*810 FILLER_22_85
*811 FILLER_22_93
*812 FILLER_23_101
*813 FILLER_23_107
*814 FILLER_23_111
*815 FILLER_23_113
*816 FILLER_23_132
*817 FILLER_23_144
*818 FILLER_23_15
*819 FILLER_23_151
*820 FILLER_23_158
*821 FILLER_23_165
*822 FILLER_23_169
*823 FILLER_23_181
*824 FILLER_23_193
*825 FILLER_23_205
*826 FILLER_23_217
*827 FILLER_23_223
*828 FILLER_23_225
*829 FILLER_23_237
*830 FILLER_23_249
*831 FILLER_23_261
*832 FILLER_23_27
*833 FILLER_23_273
*834 FILLER_23_279
*835 FILLER_23_281
*836 FILLER_23_293
*837 FILLER_23_3
*838 FILLER_23_38
*839 FILLER_23_51
*840 FILLER_23_55
*841 FILLER_23_57
*842 FILLER_23_65
*843 FILLER_23_70
*844 FILLER_23_78
*845 FILLER_23_89
*846 FILLER_23_97
*847 FILLER_24_105
*848 FILLER_24_11
*849 FILLER_24_117
*850 FILLER_24_128
*851 FILLER_24_141
*852 FILLER_24_152
*853 FILLER_24_164
*854 FILLER_24_176
*855 FILLER_24_188
*856 FILLER_24_197
*857 FILLER_24_209
*858 FILLER_24_221
*859 FILLER_24_23
*860 FILLER_24_233
*861 FILLER_24_245
*862 FILLER_24_251
*863 FILLER_24_253
*864 FILLER_24_265
*865 FILLER_24_27
*866 FILLER_24_277
*867 FILLER_24_289
*868 FILLER_24_29
*869 FILLER_24_297
*870 FILLER_24_3
*871 FILLER_24_37
*872 FILLER_24_43
*873 FILLER_24_47
*874 FILLER_24_55
*875 FILLER_24_68
*876 FILLER_24_80
*877 FILLER_24_85
*878 FILLER_24_90
*879 FILLER_24_98
*880 FILLER_25_100
*881 FILLER_25_106
*882 FILLER_25_110
*883 FILLER_25_113
*884 FILLER_25_118
*885 FILLER_25_124
*886 FILLER_25_134
*887 FILLER_25_141
*888 FILLER_25_15
*889 FILLER_25_153
*890 FILLER_25_165
*891 FILLER_25_169
*892 FILLER_25_181
*893 FILLER_25_193
*894 FILLER_25_205
*895 FILLER_25_217
*896 FILLER_25_223
*897 FILLER_25_225
*898 FILLER_25_237
*899 FILLER_25_249
*900 FILLER_25_261
*901 FILLER_25_27
*902 FILLER_25_273
*903 FILLER_25_279
*904 FILLER_25_281
*905 FILLER_25_293
*906 FILLER_25_3
*907 FILLER_25_38
*908 FILLER_25_50
*909 FILLER_25_54
*910 FILLER_25_57
*911 FILLER_25_69
*912 FILLER_25_80
*913 FILLER_25_84
*914 FILLER_25_88
*915 FILLER_26_100
*916 FILLER_26_109
*917 FILLER_26_117
*918 FILLER_26_129
*919 FILLER_26_137
*920 FILLER_26_141
*921 FILLER_26_15
*922 FILLER_26_153
*923 FILLER_26_165
*924 FILLER_26_177
*925 FILLER_26_189
*926 FILLER_26_195
*927 FILLER_26_197
*928 FILLER_26_209
*929 FILLER_26_221
*930 FILLER_26_233
*931 FILLER_26_245
*932 FILLER_26_25
*933 FILLER_26_251
*934 FILLER_26_253
*935 FILLER_26_265
*936 FILLER_26_277
*937 FILLER_26_289
*938 FILLER_26_29
*939 FILLER_26_297
*940 FILLER_26_3
*941 FILLER_26_35
*942 FILLER_26_39
*943 FILLER_26_47
*944 FILLER_26_57
*945 FILLER_26_69
*946 FILLER_26_82
*947 FILLER_26_85
*948 FILLER_27_103
*949 FILLER_27_110
*950 FILLER_27_113
*951 FILLER_27_12
*952 FILLER_27_120
*953 FILLER_27_127
*954 FILLER_27_139
*955 FILLER_27_151
*956 FILLER_27_16
*957 FILLER_27_163
*958 FILLER_27_167
*959 FILLER_27_169
*960 FILLER_27_181
*961 FILLER_27_193
*962 FILLER_27_205
*963 FILLER_27_217
*964 FILLER_27_223
*965 FILLER_27_225
*966 FILLER_27_23
*967 FILLER_27_237
*968 FILLER_27_249
*969 FILLER_27_261
*970 FILLER_27_273
*971 FILLER_27_279
*972 FILLER_27_281
*973 FILLER_27_293
*974 FILLER_27_3
*975 FILLER_27_31
*976 FILLER_27_42
*977 FILLER_27_54
*978 FILLER_27_57
*979 FILLER_27_63
*980 FILLER_27_67
*981 FILLER_27_79
*982 FILLER_27_8
*983 FILLER_27_91
*984 FILLER_28_104
*985 FILLER_28_11
*986 FILLER_28_116
*987 FILLER_28_128
*988 FILLER_28_141
*989 FILLER_28_15
*990 FILLER_28_153
*991 FILLER_28_165
*992 FILLER_28_177
*993 FILLER_28_189
*994 FILLER_28_195
*995 FILLER_28_197
*996 FILLER_28_209
*997 FILLER_28_22
*998 FILLER_28_221
*999 FILLER_28_233
*1000 FILLER_28_245
*1001 FILLER_28_251
*1002 FILLER_28_253
*1003 FILLER_28_265
*1004 FILLER_28_277
*1005 FILLER_28_289
*1006 FILLER_28_29
*1007 FILLER_28_297
*1008 FILLER_28_3
*1009 FILLER_28_40
*1010 FILLER_28_52
*1011 FILLER_28_62
*1012 FILLER_28_71
*1013 FILLER_28_78
*1014 FILLER_28_85
*1015 FILLER_28_97
*1016 FILLER_29_111
*1017 FILLER_29_113
*1018 FILLER_29_128
*1019 FILLER_29_136
*1020 FILLER_29_148
*1021 FILLER_29_15
*1022 FILLER_29_160
*1023 FILLER_29_169
*1024 FILLER_29_181
*1025 FILLER_29_193
*1026 FILLER_29_205
*1027 FILLER_29_217
*1028 FILLER_29_223
*1029 FILLER_29_225
*1030 FILLER_29_237
*1031 FILLER_29_249
*1032 FILLER_29_261
*1033 FILLER_29_27
*1034 FILLER_29_273
*1035 FILLER_29_279
*1036 FILLER_29_281
*1037 FILLER_29_293
*1038 FILLER_29_3
*1039 FILLER_29_39
*1040 FILLER_29_51
*1041 FILLER_29_55
*1042 FILLER_29_57
*1043 FILLER_29_63
*1044 FILLER_29_75
*1045 FILLER_29_87
*1046 FILLER_29_99
*1047 FILLER_2_100
*1048 FILLER_2_112
*1049 FILLER_2_124
*1050 FILLER_2_136
*1051 FILLER_2_141
*1052 FILLER_2_153
*1053 FILLER_2_165
*1054 FILLER_2_177
*1055 FILLER_2_189
*1056 FILLER_2_195
*1057 FILLER_2_197
*1058 FILLER_2_209
*1059 FILLER_2_221
*1060 FILLER_2_233
*1061 FILLER_2_245
*1062 FILLER_2_251
*1063 FILLER_2_253
*1064 FILLER_2_26
*1065 FILLER_2_265
*1066 FILLER_2_277
*1067 FILLER_2_289
*1068 FILLER_2_29
*1069 FILLER_2_297
*1070 FILLER_2_3
*1071 FILLER_2_33
*1072 FILLER_2_54
*1073 FILLER_2_61
*1074 FILLER_2_71
*1075 FILLER_2_82
*1076 FILLER_2_85
*1077 FILLER_2_90
*1078 FILLER_2_96
*1079 FILLER_30_106
*1080 FILLER_30_118
*1081 FILLER_30_130
*1082 FILLER_30_138
*1083 FILLER_30_141
*1084 FILLER_30_15
*1085 FILLER_30_153
*1086 FILLER_30_165
*1087 FILLER_30_177
*1088 FILLER_30_189
*1089 FILLER_30_195
*1090 FILLER_30_197
*1091 FILLER_30_209
*1092 FILLER_30_221
*1093 FILLER_30_233
*1094 FILLER_30_245
*1095 FILLER_30_251
*1096 FILLER_30_253
*1097 FILLER_30_265
*1098 FILLER_30_27
*1099 FILLER_30_277
*1100 FILLER_30_289
*1101 FILLER_30_29
*1102 FILLER_30_297
*1103 FILLER_30_3
*1104 FILLER_30_36
*1105 FILLER_30_49
*1106 FILLER_30_61
*1107 FILLER_30_73
*1108 FILLER_30_81
*1109 FILLER_30_85
*1110 FILLER_30_97
*1111 FILLER_31_101
*1112 FILLER_31_11
*1113 FILLER_31_110
*1114 FILLER_31_113
*1115 FILLER_31_125
*1116 FILLER_31_137
*1117 FILLER_31_149
*1118 FILLER_31_161
*1119 FILLER_31_167
*1120 FILLER_31_169
*1121 FILLER_31_17
*1122 FILLER_31_181
*1123 FILLER_31_193
*1124 FILLER_31_205
*1125 FILLER_31_217
*1126 FILLER_31_223
*1127 FILLER_31_225
*1128 FILLER_31_237
*1129 FILLER_31_249
*1130 FILLER_31_261
*1131 FILLER_31_273
*1132 FILLER_31_279
*1133 FILLER_31_281
*1134 FILLER_31_29
*1135 FILLER_31_293
*1136 FILLER_31_3
*1137 FILLER_31_41
*1138 FILLER_31_53
*1139 FILLER_31_57
*1140 FILLER_31_69
*1141 FILLER_31_81
*1142 FILLER_31_93
*1143 FILLER_32_109
*1144 FILLER_32_117
*1145 FILLER_32_125
*1146 FILLER_32_137
*1147 FILLER_32_141
*1148 FILLER_32_15
*1149 FILLER_32_153
*1150 FILLER_32_165
*1151 FILLER_32_177
*1152 FILLER_32_189
*1153 FILLER_32_195
*1154 FILLER_32_197
*1155 FILLER_32_209
*1156 FILLER_32_221
*1157 FILLER_32_233
*1158 FILLER_32_245
*1159 FILLER_32_251
*1160 FILLER_32_253
*1161 FILLER_32_265
*1162 FILLER_32_27
*1163 FILLER_32_277
*1164 FILLER_32_289
*1165 FILLER_32_29
*1166 FILLER_32_297
*1167 FILLER_32_3
*1168 FILLER_32_40
*1169 FILLER_32_52
*1170 FILLER_32_69
*1171 FILLER_32_81
*1172 FILLER_32_85
*1173 FILLER_32_97
*1174 FILLER_33_104
*1175 FILLER_33_113
*1176 FILLER_33_118
*1177 FILLER_33_130
*1178 FILLER_33_142
*1179 FILLER_33_15
*1180 FILLER_33_154
*1181 FILLER_33_166
*1182 FILLER_33_169
*1183 FILLER_33_181
*1184 FILLER_33_193
*1185 FILLER_33_205
*1186 FILLER_33_217
*1187 FILLER_33_223
*1188 FILLER_33_225
*1189 FILLER_33_237
*1190 FILLER_33_249
*1191 FILLER_33_261
*1192 FILLER_33_273
*1193 FILLER_33_279
*1194 FILLER_33_28
*1195 FILLER_33_281
*1196 FILLER_33_293
*1197 FILLER_33_3
*1198 FILLER_33_40
*1199 FILLER_33_50
*1200 FILLER_33_57
*1201 FILLER_33_68
*1202 FILLER_33_80
*1203 FILLER_33_92
*1204 FILLER_34_101
*1205 FILLER_34_113
*1206 FILLER_34_125
*1207 FILLER_34_137
*1208 FILLER_34_141
*1209 FILLER_34_15
*1210 FILLER_34_153
*1211 FILLER_34_165
*1212 FILLER_34_177
*1213 FILLER_34_189
*1214 FILLER_34_195
*1215 FILLER_34_197
*1216 FILLER_34_209
*1217 FILLER_34_221
*1218 FILLER_34_233
*1219 FILLER_34_245
*1220 FILLER_34_251
*1221 FILLER_34_253
*1222 FILLER_34_265
*1223 FILLER_34_27
*1224 FILLER_34_277
*1225 FILLER_34_289
*1226 FILLER_34_29
*1227 FILLER_34_297
*1228 FILLER_34_3
*1229 FILLER_34_38
*1230 FILLER_34_50
*1231 FILLER_34_58
*1232 FILLER_34_69
*1233 FILLER_34_81
*1234 FILLER_34_85
*1235 FILLER_35_104
*1236 FILLER_35_113
*1237 FILLER_35_125
*1238 FILLER_35_137
*1239 FILLER_35_149
*1240 FILLER_35_15
*1241 FILLER_35_161
*1242 FILLER_35_167
*1243 FILLER_35_169
*1244 FILLER_35_181
*1245 FILLER_35_193
*1246 FILLER_35_205
*1247 FILLER_35_217
*1248 FILLER_35_223
*1249 FILLER_35_225
*1250 FILLER_35_23
*1251 FILLER_35_237
*1252 FILLER_35_249
*1253 FILLER_35_261
*1254 FILLER_35_273
*1255 FILLER_35_279
*1256 FILLER_35_281
*1257 FILLER_35_293
*1258 FILLER_35_3
*1259 FILLER_35_31
*1260 FILLER_35_43
*1261 FILLER_35_47
*1262 FILLER_35_55
*1263 FILLER_35_57
*1264 FILLER_35_68
*1265 FILLER_35_80
*1266 FILLER_35_92
*1267 FILLER_36_100
*1268 FILLER_36_112
*1269 FILLER_36_124
*1270 FILLER_36_136
*1271 FILLER_36_141
*1272 FILLER_36_15
*1273 FILLER_36_153
*1274 FILLER_36_165
*1275 FILLER_36_177
*1276 FILLER_36_189
*1277 FILLER_36_195
*1278 FILLER_36_197
*1279 FILLER_36_209
*1280 FILLER_36_221
*1281 FILLER_36_233
*1282 FILLER_36_245
*1283 FILLER_36_251
*1284 FILLER_36_253
*1285 FILLER_36_265
*1286 FILLER_36_27
*1287 FILLER_36_277
*1288 FILLER_36_289
*1289 FILLER_36_29
*1290 FILLER_36_297
*1291 FILLER_36_3
*1292 FILLER_36_41
*1293 FILLER_36_57
*1294 FILLER_36_70
*1295 FILLER_36_77
*1296 FILLER_36_83
*1297 FILLER_36_85
*1298 FILLER_37_102
*1299 FILLER_37_110
*1300 FILLER_37_113
*1301 FILLER_37_125
*1302 FILLER_37_137
*1303 FILLER_37_149
*1304 FILLER_37_15
*1305 FILLER_37_161
*1306 FILLER_37_167
*1307 FILLER_37_169
*1308 FILLER_37_181
*1309 FILLER_37_193
*1310 FILLER_37_205
*1311 FILLER_37_217
*1312 FILLER_37_223
*1313 FILLER_37_225
*1314 FILLER_37_237
*1315 FILLER_37_249
*1316 FILLER_37_261
*1317 FILLER_37_27
*1318 FILLER_37_273
*1319 FILLER_37_279
*1320 FILLER_37_281
*1321 FILLER_37_293
*1322 FILLER_37_3
*1323 FILLER_37_39
*1324 FILLER_37_54
*1325 FILLER_37_57
*1326 FILLER_37_61
*1327 FILLER_37_67
*1328 FILLER_37_78
*1329 FILLER_37_90
*1330 FILLER_38_103
*1331 FILLER_38_115
*1332 FILLER_38_12
*1333 FILLER_38_127
*1334 FILLER_38_139
*1335 FILLER_38_141
*1336 FILLER_38_153
*1337 FILLER_38_165
*1338 FILLER_38_177
*1339 FILLER_38_189
*1340 FILLER_38_195
*1341 FILLER_38_197
*1342 FILLER_38_20
*1343 FILLER_38_209
*1344 FILLER_38_221
*1345 FILLER_38_233
*1346 FILLER_38_245
*1347 FILLER_38_251
*1348 FILLER_38_253
*1349 FILLER_38_265
*1350 FILLER_38_277
*1351 FILLER_38_289
*1352 FILLER_38_29
*1353 FILLER_38_297
*1354 FILLER_38_3
*1355 FILLER_38_41
*1356 FILLER_38_53
*1357 FILLER_38_65
*1358 FILLER_38_73
*1359 FILLER_38_80
*1360 FILLER_38_85
*1361 FILLER_38_91
*1362 FILLER_39_101
*1363 FILLER_39_109
*1364 FILLER_39_113
*1365 FILLER_39_125
*1366 FILLER_39_137
*1367 FILLER_39_149
*1368 FILLER_39_15
*1369 FILLER_39_161
*1370 FILLER_39_167
*1371 FILLER_39_169
*1372 FILLER_39_181
*1373 FILLER_39_193
*1374 FILLER_39_205
*1375 FILLER_39_217
*1376 FILLER_39_223
*1377 FILLER_39_225
*1378 FILLER_39_237
*1379 FILLER_39_249
*1380 FILLER_39_261
*1381 FILLER_39_27
*1382 FILLER_39_273
*1383 FILLER_39_279
*1384 FILLER_39_281
*1385 FILLER_39_293
*1386 FILLER_39_3
*1387 FILLER_39_33
*1388 FILLER_39_43
*1389 FILLER_39_54
*1390 FILLER_39_57
*1391 FILLER_39_67
*1392 FILLER_39_77
*1393 FILLER_39_89
*1394 FILLER_3_101
*1395 FILLER_3_108
*1396 FILLER_3_113
*1397 FILLER_3_125
*1398 FILLER_3_137
*1399 FILLER_3_149
*1400 FILLER_3_161
*1401 FILLER_3_167
*1402 FILLER_3_169
*1403 FILLER_3_181
*1404 FILLER_3_193
*1405 FILLER_3_205
*1406 FILLER_3_217
*1407 FILLER_3_223
*1408 FILLER_3_225
*1409 FILLER_3_237
*1410 FILLER_3_249
*1411 FILLER_3_261
*1412 FILLER_3_273
*1413 FILLER_3_279
*1414 FILLER_3_281
*1415 FILLER_3_293
*1416 FILLER_3_3
*1417 FILLER_3_30
*1418 FILLER_3_54
*1419 FILLER_3_57
*1420 FILLER_3_66
*1421 FILLER_3_73
*1422 FILLER_3_80
*1423 FILLER_3_87
*1424 FILLER_3_94
*1425 FILLER_40_109
*1426 FILLER_40_121
*1427 FILLER_40_133
*1428 FILLER_40_139
*1429 FILLER_40_141
*1430 FILLER_40_15
*1431 FILLER_40_153
*1432 FILLER_40_165
*1433 FILLER_40_177
*1434 FILLER_40_189
*1435 FILLER_40_195
*1436 FILLER_40_197
*1437 FILLER_40_209
*1438 FILLER_40_221
*1439 FILLER_40_233
*1440 FILLER_40_245
*1441 FILLER_40_251
*1442 FILLER_40_253
*1443 FILLER_40_265
*1444 FILLER_40_27
*1445 FILLER_40_277
*1446 FILLER_40_289
*1447 FILLER_40_29
*1448 FILLER_40_297
*1449 FILLER_40_3
*1450 FILLER_40_41
*1451 FILLER_40_53
*1452 FILLER_40_59
*1453 FILLER_40_71
*1454 FILLER_40_83
*1455 FILLER_40_85
*1456 FILLER_40_97
*1457 FILLER_41_100
*1458 FILLER_41_113
*1459 FILLER_41_125
*1460 FILLER_41_137
*1461 FILLER_41_149
*1462 FILLER_41_15
*1463 FILLER_41_161
*1464 FILLER_41_167
*1465 FILLER_41_169
*1466 FILLER_41_181
*1467 FILLER_41_193
*1468 FILLER_41_205
*1469 FILLER_41_217
*1470 FILLER_41_223
*1471 FILLER_41_225
*1472 FILLER_41_237
*1473 FILLER_41_249
*1474 FILLER_41_261
*1475 FILLER_41_27
*1476 FILLER_41_273
*1477 FILLER_41_279
*1478 FILLER_41_281
*1479 FILLER_41_293
*1480 FILLER_41_3
*1481 FILLER_41_35
*1482 FILLER_41_46
*1483 FILLER_41_54
*1484 FILLER_41_57
*1485 FILLER_41_77
*1486 FILLER_41_88
*1487 FILLER_42_109
*1488 FILLER_42_121
*1489 FILLER_42_133
*1490 FILLER_42_139
*1491 FILLER_42_141
*1492 FILLER_42_15
*1493 FILLER_42_153
*1494 FILLER_42_165
*1495 FILLER_42_177
*1496 FILLER_42_189
*1497 FILLER_42_195
*1498 FILLER_42_197
*1499 FILLER_42_209
*1500 FILLER_42_221
*1501 FILLER_42_233
*1502 FILLER_42_245
*1503 FILLER_42_251
*1504 FILLER_42_253
*1505 FILLER_42_265
*1506 FILLER_42_27
*1507 FILLER_42_277
*1508 FILLER_42_289
*1509 FILLER_42_29
*1510 FILLER_42_297
*1511 FILLER_42_3
*1512 FILLER_42_41
*1513 FILLER_42_53
*1514 FILLER_42_62
*1515 FILLER_42_71
*1516 FILLER_42_83
*1517 FILLER_42_85
*1518 FILLER_42_97
*1519 FILLER_43_102
*1520 FILLER_43_11
*1521 FILLER_43_110
*1522 FILLER_43_113
*1523 FILLER_43_125
*1524 FILLER_43_137
*1525 FILLER_43_149
*1526 FILLER_43_161
*1527 FILLER_43_167
*1528 FILLER_43_169
*1529 FILLER_43_181
*1530 FILLER_43_19
*1531 FILLER_43_193
*1532 FILLER_43_205
*1533 FILLER_43_217
*1534 FILLER_43_223
*1535 FILLER_43_225
*1536 FILLER_43_23
*1537 FILLER_43_237
*1538 FILLER_43_249
*1539 FILLER_43_261
*1540 FILLER_43_273
*1541 FILLER_43_279
*1542 FILLER_43_281
*1543 FILLER_43_293
*1544 FILLER_43_3
*1545 FILLER_43_33
*1546 FILLER_43_43
*1547 FILLER_43_55
*1548 FILLER_43_57
*1549 FILLER_43_66
*1550 FILLER_43_78
*1551 FILLER_43_90
*1552 FILLER_44_109
*1553 FILLER_44_121
*1554 FILLER_44_133
*1555 FILLER_44_139
*1556 FILLER_44_141
*1557 FILLER_44_15
*1558 FILLER_44_153
*1559 FILLER_44_165
*1560 FILLER_44_177
*1561 FILLER_44_189
*1562 FILLER_44_195
*1563 FILLER_44_197
*1564 FILLER_44_209
*1565 FILLER_44_221
*1566 FILLER_44_233
*1567 FILLER_44_245
*1568 FILLER_44_251
*1569 FILLER_44_253
*1570 FILLER_44_265
*1571 FILLER_44_27
*1572 FILLER_44_277
*1573 FILLER_44_289
*1574 FILLER_44_29
*1575 FILLER_44_297
*1576 FILLER_44_3
*1577 FILLER_44_41
*1578 FILLER_44_53
*1579 FILLER_44_65
*1580 FILLER_44_77
*1581 FILLER_44_83
*1582 FILLER_44_85
*1583 FILLER_44_97
*1584 FILLER_45_105
*1585 FILLER_45_111
*1586 FILLER_45_113
*1587 FILLER_45_125
*1588 FILLER_45_137
*1589 FILLER_45_14
*1590 FILLER_45_149
*1591 FILLER_45_161
*1592 FILLER_45_167
*1593 FILLER_45_169
*1594 FILLER_45_181
*1595 FILLER_45_193
*1596 FILLER_45_205
*1597 FILLER_45_217
*1598 FILLER_45_223
*1599 FILLER_45_225
*1600 FILLER_45_237
*1601 FILLER_45_249
*1602 FILLER_45_26
*1603 FILLER_45_261
*1604 FILLER_45_273
*1605 FILLER_45_279
*1606 FILLER_45_281
*1607 FILLER_45_293
*1608 FILLER_45_3
*1609 FILLER_45_38
*1610 FILLER_45_50
*1611 FILLER_45_57
*1612 FILLER_45_69
*1613 FILLER_45_81
*1614 FILLER_45_9
*1615 FILLER_45_93
*1616 FILLER_46_109
*1617 FILLER_46_121
*1618 FILLER_46_133
*1619 FILLER_46_139
*1620 FILLER_46_141
*1621 FILLER_46_15
*1622 FILLER_46_153
*1623 FILLER_46_165
*1624 FILLER_46_177
*1625 FILLER_46_189
*1626 FILLER_46_195
*1627 FILLER_46_197
*1628 FILLER_46_209
*1629 FILLER_46_221
*1630 FILLER_46_233
*1631 FILLER_46_245
*1632 FILLER_46_251
*1633 FILLER_46_253
*1634 FILLER_46_265
*1635 FILLER_46_27
*1636 FILLER_46_277
*1637 FILLER_46_289
*1638 FILLER_46_29
*1639 FILLER_46_297
*1640 FILLER_46_3
*1641 FILLER_46_41
*1642 FILLER_46_53
*1643 FILLER_46_65
*1644 FILLER_46_77
*1645 FILLER_46_83
*1646 FILLER_46_85
*1647 FILLER_46_97
*1648 FILLER_47_105
*1649 FILLER_47_111
*1650 FILLER_47_113
*1651 FILLER_47_125
*1652 FILLER_47_137
*1653 FILLER_47_14
*1654 FILLER_47_149
*1655 FILLER_47_161
*1656 FILLER_47_167
*1657 FILLER_47_169
*1658 FILLER_47_181
*1659 FILLER_47_193
*1660 FILLER_47_205
*1661 FILLER_47_217
*1662 FILLER_47_22
*1663 FILLER_47_223
*1664 FILLER_47_225
*1665 FILLER_47_237
*1666 FILLER_47_249
*1667 FILLER_47_261
*1668 FILLER_47_273
*1669 FILLER_47_279
*1670 FILLER_47_281
*1671 FILLER_47_293
*1672 FILLER_47_3
*1673 FILLER_47_34
*1674 FILLER_47_46
*1675 FILLER_47_54
*1676 FILLER_47_57
*1677 FILLER_47_69
*1678 FILLER_47_81
*1679 FILLER_47_9
*1680 FILLER_47_93
*1681 FILLER_48_109
*1682 FILLER_48_121
*1683 FILLER_48_133
*1684 FILLER_48_139
*1685 FILLER_48_141
*1686 FILLER_48_15
*1687 FILLER_48_153
*1688 FILLER_48_165
*1689 FILLER_48_177
*1690 FILLER_48_189
*1691 FILLER_48_195