*SPEF "ieee 1481-1999"
*DESIGN "FSM_LAT"
*DATE "11:11:11 Fri 11 11, 1111"
*VENDOR "OpenRCX"
*PROGRAM "Parallel Extraction"
*VERSION "1.0"
*DESIGN_FLOW "NAME_SCOPE LOCAL" "PIN_CAP NONE"
*DIVIDER /
*DELIMITER :
*BUS_DELIMITER []
*T_UNIT 1 NS
*C_UNIT 1 PF
*R_UNIT 1 OHM
*L_UNIT 1 HENRY

*NAME_MAP
*1 io_in[0]
*2 io_in[1]
*3 io_in[2]
*4 io_in[3]
*5 io_in[4]
*6 io_in[5]
*7 io_in[6]
*8 io_in[7]
*9 io_out[0]
*10 io_out[1]
*11 io_out[2]
*12 io_out[3]
*13 io_out[4]
*14 io_out[5]
*15 io_out[6]
*16 io_out[7]
*19 PISO\.clk
*20 PISO\.divider\.reg1\.q
*21 PISO\.divider\.reg2\.q
*22 PISO\.divider\.reg3\.q
*23 PISO\.divider\.reg4\.q
*24 PISO\.divider\.reg5\.q
*25 PISO\.divider\.reg6\.q
*26 PISO\.divider\.reg7\.q
*27 PISO\.out
*28 PISO\.piso\[0\]\.a
*29 PISO\.piso\[0\]\.shift_in
*30 PISO\.piso\[10\]\.a
*31 PISO\.piso\[10\]\.flip\.q
*32 PISO\.piso\[10\]\.shift_in
*33 PISO\.piso\[11\]\.a
*34 PISO\.piso\[11\]\.shift_in
*35 PISO\.piso\[12\]\.a
*36 PISO\.piso\[12\]\.shift_in
*37 PISO\.piso\[13\]\.a
*38 PISO\.piso\[13\]\.shift_in
*39 PISO\.piso\[14\]\.a
*40 PISO\.piso\[14\]\.shift_in
*41 PISO\.piso\[15\]\.a
*42 PISO\.piso\[15\]\.shift_in
*43 PISO\.piso\[16\]\.a
*44 PISO\.piso\[16\]\.shift_in
*45 PISO\.piso\[17\]\.a
*46 PISO\.piso\[17\]\.shift_in
*47 PISO\.piso\[18\]\.a
*48 PISO\.piso\[18\]\.shift_in
*49 PISO\.piso\[19\]\.a
*50 PISO\.piso\[19\]\.shift_in
*51 PISO\.piso\[1\]\.a
*52 PISO\.piso\[1\]\.shift_in
*53 PISO\.piso\[20\]\.a
*54 PISO\.piso\[20\]\.shift_in
*55 PISO\.piso\[21\]\.a
*56 PISO\.piso\[21\]\.shift_in
*57 PISO\.piso\[22\]\.a
*58 PISO\.piso\[22\]\.shift_in
*59 PISO\.piso\[23\]\.a
*60 PISO\.piso\[23\]\.shift_in
*61 PISO\.piso\[24\]\.a
*62 PISO\.piso\[24\]\.shift_in
*63 PISO\.piso\[25\]\.a
*64 PISO\.piso\[25\]\.shift_in
*65 PISO\.piso\[26\]\.a
*66 PISO\.piso\[26\]\.shift_in
*67 PISO\.piso\[27\]\.a
*68 PISO\.piso\[27\]\.shift_in
*69 PISO\.piso\[28\]\.a
*70 PISO\.piso\[28\]\.shift_in
*71 PISO\.piso\[29\]\.a
*72 PISO\.piso\[29\]\.shift_in
*73 PISO\.piso\[2\]\.a
*74 PISO\.piso\[2\]\.shift_in
*75 PISO\.piso\[30\]\.a
*76 PISO\.piso\[30\]\.shift_in
*77 PISO\.piso\[31\]\.a
*78 PISO\.piso\[3\]\.a
*79 PISO\.piso\[3\]\.shift_in
*80 PISO\.piso\[4\]\.a
*81 PISO\.piso\[4\]\.shift_in
*82 PISO\.piso\[5\]\.a
*83 PISO\.piso\[5\]\.shift_in
*84 PISO\.piso\[6\]\.a
*85 PISO\.piso\[6\]\.shift_in
*86 PISO\.piso\[7\]\.a
*87 PISO\.piso\[7\]\.shift_in
*88 PISO\.piso\[8\]\.a
*89 PISO\.piso\[8\]\.shift_in
*90 PISO\.piso\[9\]\.a
*91 RING\.idelay\[0\]\.A
*92 RING\.idelay\[0\]\.Y
*93 RING\.idelay\[100\]\.A
*94 RING\.idelay\[100\]\.Y
*95 RING\.idelay\[101\]\.A
*96 RING\.idelay\[101\]\.Y
*97 RING\.idelay\[102\]\.A
*98 RING\.idelay\[102\]\.Y
*99 RING\.idelay\[103\]\.A
*100 RING\.idelay\[103\]\.Y
*101 RING\.idelay\[104\]\.A
*102 RING\.idelay\[104\]\.Y
*103 RING\.idelay\[105\]\.A
*104 RING\.idelay\[105\]\.Y
*105 RING\.idelay\[106\]\.A
*106 RING\.idelay\[106\]\.Y
*107 RING\.idelay\[107\]\.A
*108 RING\.idelay\[107\]\.Y
*109 RING\.idelay\[108\]\.A
*110 RING\.idelay\[108\]\.Y
*111 RING\.idelay\[109\]\.A
*112 RING\.idelay\[109\]\.Y
*113 RING\.idelay\[10\]\.A
*114 RING\.idelay\[10\]\.Y
*115 RING\.idelay\[110\]\.A
*116 RING\.idelay\[110\]\.Y
*117 RING\.idelay\[111\]\.A
*118 RING\.idelay\[111\]\.Y
*119 RING\.idelay\[112\]\.A
*120 RING\.idelay\[112\]\.Y
*121 RING\.idelay\[113\]\.A
*122 RING\.idelay\[113\]\.Y
*123 RING\.idelay\[114\]\.A
*124 RING\.idelay\[114\]\.Y
*125 RING\.idelay\[115\]\.A
*126 RING\.idelay\[115\]\.Y
*127 RING\.idelay\[116\]\.A
*128 RING\.idelay\[116\]\.Y
*129 RING\.idelay\[117\]\.A
*130 RING\.idelay\[117\]\.Y
*131 RING\.idelay\[118\]\.A
*132 RING\.idelay\[118\]\.Y
*133 RING\.idelay\[119\]\.A
*134 RING\.idelay\[119\]\.Y
*135 RING\.idelay\[11\]\.A
*136 RING\.idelay\[11\]\.Y
*137 RING\.idelay\[120\]\.A
*138 RING\.idelay\[120\]\.Y
*139 RING\.idelay\[121\]\.A
*140 RING\.idelay\[121\]\.Y
*141 RING\.idelay\[122\]\.A
*142 RING\.idelay\[122\]\.Y
*143 RING\.idelay\[123\]\.A
*144 RING\.idelay\[123\]\.Y
*145 RING\.idelay\[124\]\.A
*146 RING\.idelay\[124\]\.Y
*147 RING\.idelay\[125\]\.A
*148 RING\.idelay\[125\]\.Y
*149 RING\.idelay\[126\]\.A
*150 RING\.idelay\[126\]\.Y
*151 RING\.idelay\[127\]\.A
*152 RING\.idelay\[127\]\.Y
*153 RING\.idelay\[128\]\.A
*154 RING\.idelay\[128\]\.Y
*155 RING\.idelay\[129\]\.A
*156 RING\.idelay\[129\]\.Y
*157 RING\.idelay\[12\]\.A
*158 RING\.idelay\[12\]\.Y
*159 RING\.idelay\[130\]\.A
*160 RING\.idelay\[130\]\.Y
*161 RING\.idelay\[131\]\.A
*162 RING\.idelay\[131\]\.Y
*163 RING\.idelay\[132\]\.A
*164 RING\.idelay\[132\]\.Y
*165 RING\.idelay\[133\]\.A
*166 RING\.idelay\[133\]\.Y
*167 RING\.idelay\[134\]\.A
*168 RING\.idelay\[134\]\.Y
*169 RING\.idelay\[135\]\.A
*170 RING\.idelay\[135\]\.Y
*171 RING\.idelay\[136\]\.A
*172 RING\.idelay\[136\]\.Y
*173 RING\.idelay\[137\]\.A
*174 RING\.idelay\[137\]\.Y
*175 RING\.idelay\[138\]\.A
*176 RING\.idelay\[138\]\.Y
*177 RING\.idelay\[139\]\.A
*178 RING\.idelay\[139\]\.Y
*179 RING\.idelay\[13\]\.A
*180 RING\.idelay\[13\]\.Y
*181 RING\.idelay\[140\]\.A
*182 RING\.idelay\[140\]\.Y
*183 RING\.idelay\[141\]\.A
*184 RING\.idelay\[141\]\.Y
*185 RING\.idelay\[142\]\.A
*186 RING\.idelay\[142\]\.Y
*187 RING\.idelay\[143\]\.A
*188 RING\.idelay\[143\]\.Y
*189 RING\.idelay\[144\]\.A
*190 RING\.idelay\[144\]\.Y
*191 RING\.idelay\[145\]\.A
*192 RING\.idelay\[145\]\.Y
*193 RING\.idelay\[146\]\.A
*194 RING\.idelay\[146\]\.Y
*195 RING\.idelay\[147\]\.A
*196 RING\.idelay\[147\]\.Y
*197 RING\.idelay\[148\]\.A
*198 RING\.idelay\[148\]\.Y
*199 RING\.idelay\[149\]\.A
*200 RING\.idelay\[149\]\.Y
*201 RING\.idelay\[14\]\.A
*202 RING\.idelay\[14\]\.Y
*203 RING\.idelay\[150\]\.A
*204 RING\.idelay\[150\]\.Y
*205 RING\.idelay\[151\]\.A
*206 RING\.idelay\[151\]\.Y
*207 RING\.idelay\[152\]\.A
*208 RING\.idelay\[152\]\.Y
*209 RING\.idelay\[153\]\.A
*210 RING\.idelay\[153\]\.Y
*211 RING\.idelay\[154\]\.A
*212 RING\.idelay\[154\]\.Y
*213 RING\.idelay\[155\]\.A
*214 RING\.idelay\[155\]\.Y
*215 RING\.idelay\[156\]\.A
*216 RING\.idelay\[156\]\.Y
*217 RING\.idelay\[157\]\.A
*218 RING\.idelay\[157\]\.Y
*219 RING\.idelay\[158\]\.A
*220 RING\.idelay\[158\]\.Y
*221 RING\.idelay\[159\]\.A
*222 RING\.idelay\[159\]\.Y
*223 RING\.idelay\[15\]\.A
*224 RING\.idelay\[15\]\.Y
*225 RING\.idelay\[160\]\.A
*226 RING\.idelay\[160\]\.Y
*227 RING\.idelay\[161\]\.A
*228 RING\.idelay\[161\]\.Y
*229 RING\.idelay\[162\]\.A
*230 RING\.idelay\[162\]\.Y
*231 RING\.idelay\[163\]\.A
*232 RING\.idelay\[163\]\.Y
*233 RING\.idelay\[164\]\.A
*234 RING\.idelay\[164\]\.Y
*235 RING\.idelay\[165\]\.A
*236 RING\.idelay\[165\]\.Y
*237 RING\.idelay\[166\]\.A
*238 RING\.idelay\[166\]\.Y
*239 RING\.idelay\[167\]\.A
*240 RING\.idelay\[167\]\.Y
*241 RING\.idelay\[168\]\.A
*242 RING\.idelay\[168\]\.Y
*243 RING\.idelay\[169\]\.A
*244 RING\.idelay\[169\]\.Y
*245 RING\.idelay\[16\]\.A
*246 RING\.idelay\[16\]\.Y
*247 RING\.idelay\[170\]\.A
*248 RING\.idelay\[170\]\.Y
*249 RING\.idelay\[171\]\.A
*250 RING\.idelay\[171\]\.Y
*251 RING\.idelay\[172\]\.A
*252 RING\.idelay\[172\]\.Y
*253 RING\.idelay\[173\]\.A
*254 RING\.idelay\[173\]\.Y
*255 RING\.idelay\[174\]\.A
*256 RING\.idelay\[174\]\.Y
*257 RING\.idelay\[175\]\.A
*258 RING\.idelay\[175\]\.Y
*259 RING\.idelay\[176\]\.A
*260 RING\.idelay\[176\]\.Y
*261 RING\.idelay\[177\]\.A
*262 RING\.idelay\[177\]\.Y
*263 RING\.idelay\[178\]\.A
*264 RING\.idelay\[178\]\.Y
*265 RING\.idelay\[179\]\.A
*266 RING\.idelay\[179\]\.Y
*267 RING\.idelay\[17\]\.A
*268 RING\.idelay\[17\]\.Y
*269 RING\.idelay\[180\]\.A
*270 RING\.idelay\[180\]\.Y
*271 RING\.idelay\[181\]\.A
*272 RING\.idelay\[181\]\.Y
*273 RING\.idelay\[182\]\.A
*274 RING\.idelay\[182\]\.Y
*275 RING\.idelay\[183\]\.A
*276 RING\.idelay\[183\]\.Y
*277 RING\.idelay\[184\]\.A
*278 RING\.idelay\[184\]\.Y
*279 RING\.idelay\[185\]\.A
*280 RING\.idelay\[185\]\.Y
*281 RING\.idelay\[186\]\.A
*282 RING\.idelay\[186\]\.Y
*283 RING\.idelay\[187\]\.A
*284 RING\.idelay\[187\]\.Y
*285 RING\.idelay\[188\]\.A
*286 RING\.idelay\[188\]\.Y
*287 RING\.idelay\[189\]\.A
*288 RING\.idelay\[189\]\.Y
*289 RING\.idelay\[18\]\.A
*290 RING\.idelay\[18\]\.Y
*291 RING\.idelay\[190\]\.A
*292 RING\.idelay\[190\]\.Y
*293 RING\.idelay\[191\]\.A
*294 RING\.idelay\[191\]\.Y
*295 RING\.idelay\[192\]\.A
*296 RING\.idelay\[192\]\.Y
*297 RING\.idelay\[193\]\.A
*298 RING\.idelay\[193\]\.Y
*299 RING\.idelay\[194\]\.A
*300 RING\.idelay\[194\]\.Y
*301 RING\.idelay\[195\]\.A
*302 RING\.idelay\[195\]\.Y
*303 RING\.idelay\[196\]\.A
*304 RING\.idelay\[196\]\.Y
*305 RING\.idelay\[197\]\.A
*306 RING\.idelay\[197\]\.Y
*307 RING\.idelay\[198\]\.A
*308 RING\.idelay\[198\]\.Y
*309 RING\.idelay\[199\]\.A
*310 RING\.idelay\[199\]\.Y
*311 RING\.idelay\[19\]\.A
*312 RING\.idelay\[19\]\.Y
*313 RING\.idelay\[1\]\.A
*314 RING\.idelay\[1\]\.Y
*315 RING\.idelay\[200\]\.A
*316 RING\.idelay\[200\]\.Y
*317 RING\.idelay\[201\]\.A
*318 RING\.idelay\[201\]\.Y
*319 RING\.idelay\[202\]\.A
*320 RING\.idelay\[202\]\.Y
*321 RING\.idelay\[203\]\.A
*322 RING\.idelay\[203\]\.Y
*323 RING\.idelay\[204\]\.A
*324 RING\.idelay\[204\]\.Y
*325 RING\.idelay\[205\]\.A
*326 RING\.idelay\[205\]\.Y
*327 RING\.idelay\[206\]\.A
*328 RING\.idelay\[206\]\.Y
*329 RING\.idelay\[207\]\.A
*330 RING\.idelay\[207\]\.Y
*331 RING\.idelay\[208\]\.A
*332 RING\.idelay\[208\]\.Y
*333 RING\.idelay\[209\]\.A
*334 RING\.idelay\[209\]\.Y
*335 RING\.idelay\[20\]\.A
*336 RING\.idelay\[20\]\.Y
*337 RING\.idelay\[210\]\.A
*338 RING\.idelay\[210\]\.Y
*339 RING\.idelay\[211\]\.A
*340 RING\.idelay\[211\]\.Y
*341 RING\.idelay\[212\]\.A
*342 RING\.idelay\[212\]\.Y
*343 RING\.idelay\[213\]\.A
*344 RING\.idelay\[213\]\.Y
*345 RING\.idelay\[214\]\.A
*346 RING\.idelay\[214\]\.Y
*347 RING\.idelay\[215\]\.A
*348 RING\.idelay\[215\]\.Y
*349 RING\.idelay\[216\]\.A
*350 RING\.idelay\[216\]\.Y
*351 RING\.idelay\[217\]\.A
*352 RING\.idelay\[217\]\.Y
*353 RING\.idelay\[218\]\.A
*354 RING\.idelay\[218\]\.Y
*355 RING\.idelay\[219\]\.A
*356 RING\.idelay\[219\]\.Y
*357 RING\.idelay\[21\]\.A
*358 RING\.idelay\[21\]\.Y
*359 RING\.idelay\[220\]\.A
*360 RING\.idelay\[220\]\.Y
*361 RING\.idelay\[221\]\.A
*362 RING\.idelay\[221\]\.Y
*363 RING\.idelay\[222\]\.A
*364 RING\.idelay\[222\]\.Y
*365 RING\.idelay\[223\]\.A
*366 RING\.idelay\[223\]\.Y
*367 RING\.idelay\[224\]\.A
*368 RING\.idelay\[224\]\.Y
*369 RING\.idelay\[225\]\.A
*370 RING\.idelay\[225\]\.Y
*371 RING\.idelay\[226\]\.A
*372 RING\.idelay\[226\]\.Y
*373 RING\.idelay\[227\]\.A
*374 RING\.idelay\[227\]\.Y
*375 RING\.idelay\[228\]\.A
*376 RING\.idelay\[228\]\.Y
*377 RING\.idelay\[229\]\.A
*378 RING\.idelay\[229\]\.Y
*379 RING\.idelay\[22\]\.A
*380 RING\.idelay\[22\]\.Y
*381 RING\.idelay\[230\]\.A
*382 RING\.idelay\[230\]\.Y
*383 RING\.idelay\[231\]\.A
*384 RING\.idelay\[231\]\.Y
*385 RING\.idelay\[232\]\.A
*386 RING\.idelay\[232\]\.Y
*387 RING\.idelay\[233\]\.A
*388 RING\.idelay\[233\]\.Y
*389 RING\.idelay\[234\]\.A
*390 RING\.idelay\[234\]\.Y
*391 RING\.idelay\[235\]\.A
*392 RING\.idelay\[235\]\.Y
*393 RING\.idelay\[236\]\.A
*394 RING\.idelay\[236\]\.Y
*395 RING\.idelay\[237\]\.A
*396 RING\.idelay\[237\]\.Y
*397 RING\.idelay\[238\]\.A
*398 RING\.idelay\[238\]\.Y
*399 RING\.idelay\[239\]\.A
*400 RING\.idelay\[239\]\.Y
*401 RING\.idelay\[23\]\.A
*402 RING\.idelay\[23\]\.Y
*403 RING\.idelay\[240\]\.A
*404 RING\.idelay\[240\]\.Y
*405 RING\.idelay\[241\]\.A
*406 RING\.idelay\[241\]\.Y
*407 RING\.idelay\[242\]\.A
*408 RING\.idelay\[242\]\.Y
*409 RING\.idelay\[243\]\.A
*410 RING\.idelay\[243\]\.Y
*411 RING\.idelay\[244\]\.A
*412 RING\.idelay\[244\]\.Y
*413 RING\.idelay\[245\]\.A
*414 RING\.idelay\[245\]\.Y
*415 RING\.idelay\[246\]\.A
*416 RING\.idelay\[246\]\.Y
*417 RING\.idelay\[247\]\.A
*418 RING\.idelay\[247\]\.Y
*419 RING\.idelay\[248\]\.A
*420 RING\.idelay\[248\]\.Y
*421 RING\.idelay\[249\]\.A
*422 RING\.idelay\[249\]\.Y
*423 RING\.idelay\[24\]\.A
*424 RING\.idelay\[24\]\.Y
*425 RING\.idelay\[25\]\.A
*426 RING\.idelay\[25\]\.Y
*427 RING\.idelay\[26\]\.A
*428 RING\.idelay\[26\]\.Y
*429 RING\.idelay\[27\]\.A
*430 RING\.idelay\[27\]\.Y
*431 RING\.idelay\[28\]\.A
*432 RING\.idelay\[28\]\.Y
*433 RING\.idelay\[29\]\.A
*434 RING\.idelay\[29\]\.Y
*435 RING\.idelay\[2\]\.A
*436 RING\.idelay\[2\]\.Y
*437 RING\.idelay\[30\]\.A
*438 RING\.idelay\[30\]\.Y
*439 RING\.idelay\[31\]\.A
*440 RING\.idelay\[31\]\.Y
*441 RING\.idelay\[32\]\.A
*442 RING\.idelay\[32\]\.Y
*443 RING\.idelay\[33\]\.A
*444 RING\.idelay\[33\]\.Y
*445 RING\.idelay\[34\]\.A
*446 RING\.idelay\[34\]\.Y
*447 RING\.idelay\[35\]\.A
*448 RING\.idelay\[35\]\.Y
*449 RING\.idelay\[36\]\.A
*450 RING\.idelay\[36\]\.Y
*451 RING\.idelay\[37\]\.A
*452 RING\.idelay\[37\]\.Y
*453 RING\.idelay\[38\]\.A
*454 RING\.idelay\[38\]\.Y
*455 RING\.idelay\[39\]\.A
*456 RING\.idelay\[39\]\.Y
*457 RING\.idelay\[3\]\.A
*458 RING\.idelay\[3\]\.Y
*459 RING\.idelay\[40\]\.A
*460 RING\.idelay\[40\]\.Y
*461 RING\.idelay\[41\]\.A
*462 RING\.idelay\[41\]\.Y
*463 RING\.idelay\[42\]\.A
*464 RING\.idelay\[42\]\.Y
*465 RING\.idelay\[43\]\.A
*466 RING\.idelay\[43\]\.Y
*467 RING\.idelay\[44\]\.A
*468 RING\.idelay\[44\]\.Y
*469 RING\.idelay\[45\]\.A
*470 RING\.idelay\[45\]\.Y
*471 RING\.idelay\[46\]\.A
*472 RING\.idelay\[46\]\.Y
*473 RING\.idelay\[47\]\.A
*474 RING\.idelay\[47\]\.Y
*475 RING\.idelay\[48\]\.A
*476 RING\.idelay\[48\]\.Y
*477 RING\.idelay\[49\]\.A
*478 RING\.idelay\[49\]\.Y
*479 RING\.idelay\[4\]\.A
*480 RING\.idelay\[4\]\.Y
*481 RING\.idelay\[50\]\.A
*482 RING\.idelay\[50\]\.Y
*483 RING\.idelay\[51\]\.A
*484 RING\.idelay\[51\]\.Y
*485 RING\.idelay\[52\]\.A
*486 RING\.idelay\[52\]\.Y
*487 RING\.idelay\[53\]\.A
*488 RING\.idelay\[53\]\.Y
*489 RING\.idelay\[54\]\.A
*490 RING\.idelay\[54\]\.Y
*491 RING\.idelay\[55\]\.A
*492 RING\.idelay\[55\]\.Y
*493 RING\.idelay\[56\]\.A
*494 RING\.idelay\[56\]\.Y
*495 RING\.idelay\[57\]\.A
*496 RING\.idelay\[57\]\.Y
*497 RING\.idelay\[58\]\.A
*498 RING\.idelay\[58\]\.Y
*499 RING\.idelay\[59\]\.A
*500 RING\.idelay\[59\]\.Y
*501 RING\.idelay\[5\]\.A
*502 RING\.idelay\[5\]\.Y
*503 RING\.idelay\[60\]\.A
*504 RING\.idelay\[60\]\.Y
*505 RING\.idelay\[61\]\.A
*506 RING\.idelay\[61\]\.Y
*507 RING\.idelay\[62\]\.A
*508 RING\.idelay\[62\]\.Y
*509 RING\.idelay\[63\]\.A
*510 RING\.idelay\[63\]\.Y
*511 RING\.idelay\[64\]\.A
*512 RING\.idelay\[64\]\.Y
*513 RING\.idelay\[65\]\.A
*514 RING\.idelay\[65\]\.Y
*515 RING\.idelay\[66\]\.A
*516 RING\.idelay\[66\]\.Y
*517 RING\.idelay\[67\]\.A
*518 RING\.idelay\[67\]\.Y
*519 RING\.idelay\[68\]\.A
*520 RING\.idelay\[68\]\.Y
*521 RING\.idelay\[69\]\.A
*522 RING\.idelay\[69\]\.Y
*523 RING\.idelay\[6\]\.A
*524 RING\.idelay\[6\]\.Y
*525 RING\.idelay\[70\]\.A
*526 RING\.idelay\[70\]\.Y
*527 RING\.idelay\[71\]\.A
*528 RING\.idelay\[71\]\.Y
*529 RING\.idelay\[72\]\.A
*530 RING\.idelay\[72\]\.Y
*531 RING\.idelay\[73\]\.A
*532 RING\.idelay\[73\]\.Y
*533 RING\.idelay\[74\]\.A
*534 RING\.idelay\[74\]\.Y
*535 RING\.idelay\[75\]\.A
*536 RING\.idelay\[75\]\.Y
*537 RING\.idelay\[76\]\.A
*538 RING\.idelay\[76\]\.Y
*539 RING\.idelay\[77\]\.A
*540 RING\.idelay\[77\]\.Y
*541 RING\.idelay\[78\]\.A
*542 RING\.idelay\[78\]\.Y
*543 RING\.idelay\[79\]\.A
*544 RING\.idelay\[79\]\.Y
*545 RING\.idelay\[7\]\.A
*546 RING\.idelay\[7\]\.Y
*547 RING\.idelay\[80\]\.A
*548 RING\.idelay\[80\]\.Y
*549 RING\.idelay\[81\]\.A
*550 RING\.idelay\[81\]\.Y
*551 RING\.idelay\[82\]\.A
*552 RING\.idelay\[82\]\.Y
*553 RING\.idelay\[83\]\.A
*554 RING\.idelay\[83\]\.Y
*555 RING\.idelay\[84\]\.A
*556 RING\.idelay\[84\]\.Y
*557 RING\.idelay\[85\]\.A
*558 RING\.idelay\[85\]\.Y
*559 RING\.idelay\[86\]\.A
*560 RING\.idelay\[86\]\.Y
*561 RING\.idelay\[87\]\.A
*562 RING\.idelay\[87\]\.Y
*563 RING\.idelay\[88\]\.A
*564 RING\.idelay\[88\]\.Y
*565 RING\.idelay\[89\]\.A
*566 RING\.idelay\[89\]\.Y
*567 RING\.idelay\[8\]\.A
*568 RING\.idelay\[8\]\.Y
*569 RING\.idelay\[90\]\.A
*570 RING\.idelay\[90\]\.Y
*571 RING\.idelay\[91\]\.A
*572 RING\.idelay\[91\]\.Y
*573 RING\.idelay\[92\]\.A
*574 RING\.idelay\[92\]\.Y
*575 RING\.idelay\[93\]\.A
*576 RING\.idelay\[93\]\.Y
*577 RING\.idelay\[94\]\.A
*578 RING\.idelay\[94\]\.Y
*579 RING\.idelay\[95\]\.A
*580 RING\.idelay\[95\]\.Y
*581 RING\.idelay\[96\]\.A
*582 RING\.idelay\[96\]\.Y
*583 RING\.idelay\[97\]\.A
*584 RING\.idelay\[97\]\.Y
*585 RING\.idelay\[98\]\.A
*586 RING\.idelay\[98\]\.Y
*587 RING\.idelay\[99\]\.A
*588 RING\.idelay\[99\]\.Y
*589 RING\.idelay\[9\]\.A
*590 RING\.idelay\[9\]\.Y
*591 RING\.idelay_16\[0\]\.A
*592 Sipo\.AA
*593 Sipo\.CC
*594 Sipo\.U0\.U0\.clk
*595 Sipo\.U0\.U0\.q
*596 Sipo\.U0\.U1\.q
*597 Sipo\.U0\.U2\.q
*598 Sipo\.U0\.U3\.q
*599 Sipo\.U0\.U4\.q
*600 Sipo\.U1\.U0\.q
*601 Sipo\.U1\.U1\.q
*602 Sipo\.U1\.U2\.q
*603 Sipo\.U1\.U3\.q
*604 Sipo\.U1\.U4\.q
*605 Sipo\.U2\.U0\.q
*606 Sipo\.U2\.U1\.q
*607 Sipo\.U2\.U2\.q
*608 Sipo\.U2\.U3\.q
*609 Sipo\.U2\.U4\.q
*610 Sipo\.U3\.U0\.q
*611 Sipo\.U3\.U1\.q
*612 Sipo\.U3\.U2\.q
*613 Sipo\.U3\.U3\.q
*614 Sipo\.U3\.U4\.q
*615 Sipo\.U4\.U0\.q
*616 Sipo\.U4\.U1\.q
*617 Sipo\.U4\.U2\.q
*618 Sipo\.U4\.U3\.q
*619 Sipo\.U4\.U4\.q
*620 Sipo\.ennd\.q
*621 State_machine\.out\[0\]
*622 State_machine\.out\[1\]
*623 State_machine\.out\[2\]
*624 State_machine\.out\[3\]
*625 State_machine\.out\[4\]
*626 State_machine\.state\[0\]
*627 State_machine\.state\[1\]
*628 State_machine\.state\[2\]
*629 _0000_
*630 _0001_
*631 _0002_
*632 _0003_
*633 _0004_
*634 _0005_
*635 _0006_
*636 _0007_
*637 _0008_
*638 _0009_
*639 _0010_
*640 _0011_
*641 _0012_
*642 _0013_
*643 _0014_
*644 _0015_
*645 _0016_
*646 _0017_
*647 _0018_
*648 _0019_
*649 _0020_
*650 _0021_
*651 _0022_
*652 _0023_
*653 _0024_
*654 _0025_
*655 _0026_
*656 _0027_
*657 _0028_
*658 _0029_
*659 _0030_
*660 _0031_
*661 _0032_
*662 _0033_
*663 _0034_
*664 _0035_
*665 _0036_
*666 _0037_
*667 _0038_
*668 _0039_
*669 _0040_
*670 _0041_
*671 _0042_
*672 _0043_
*673 _0044_
*674 _0045_
*675 _0046_
*676 _0047_
*677 _0048_
*678 _0049_
*679 _0050_
*680 _0051_
*681 _0052_
*682 _0053_
*683 _0054_
*684 _0055_
*685 _0056_
*686 _0057_
*687 _0058_
*688 _0059_
*689 _0060_
*690 _0061_
*691 _0062_
*692 _0063_
*693 _0064_
*694 _0065_
*695 _0066_
*696 _0067_
*697 _0068_
*698 _0069_
*699 _0070_
*700 _0071_
*701 _0072_
*702 _0073_
*703 _0074_
*704 _0075_
*705 _0076_
*706 _0077_
*707 _0078_
*708 _0079_
*709 _0080_
*710 _0081_
*711 _0082_
*712 _0083_
*713 _0084_
*714 _0085_
*715 _0086_
*716 _0087_
*717 _0088_
*718 _0089_
*719 _0091_
*720 _0092_
*721 _0093_
*722 _0094_
*723 _0095_
*724 _0096_
*725 _0097_
*726 _0098_
*727 _0099_
*728 _0100_
*729 _0101_
*730 _0102_
*731 _0103_
*732 _0104_
*733 _0105_
*734 _0106_
*735 _0107_
*736 _0108_
*737 _0109_
*738 _0110_
*739 _0111_
*740 _0112_
*741 _0113_
*742 _0114_
*743 _0115_
*744 _0116_
*745 _0117_
*746 _0118_
*747 _0119_
*748 _0120_
*749 _0121_
*750 _0122_
*751 _0123_
*752 _0124_
*753 _0125_
*754 _0126_
*755 _0127_
*756 _0128_
*757 _0129_
*758 _0130_
*759 _0131_
*760 _0132_
*761 _0133_
*762 _0134_
*763 _0135_
*764 _0136_
*765 _0137_
*766 _0138_
*767 _0139_
*768 _0140_
*769 _0141_
*770 _0142_
*771 _0143_
*772 _0144_
*773 _0145_
*774 _0146_
*775 _0147_
*776 _0148_
*777 _0149_
*778 _0150_
*779 _0151_
*780 _0152_
*781 _0153_
*782 _0154_
*783 _0155_
*784 _0156_
*785 _0157_
*786 _0158_
*787 _0159_
*788 _0160_
*789 _0161_
*790 _0162_
*791 _0163_
*792 _0164_
*793 _0165_
*794 _0166_
*795 _0167_
*796 _0168_
*797 _0169_
*798 _0170_
*799 _0171_
*800 _0172_
*801 _0173_
*802 _0174_
*803 _0175_
*804 _0176_
*805 _0177_
*806 _0178_
*807 _0179_
*808 _0180_
*809 _0181_
*810 _0182_
*811 _0183_
*812 _0184_
*813 _0185_
*814 _0186_
*815 _0187_
*816 _0188_
*817 _0189_
*818 _0190_
*819 _0191_
*820 _0192_
*821 _0193_
*822 _0194_
*823 _0195_
*824 _0196_
*825 _0197_
*826 _0198_
*827 _0199_
*828 _0200_
*829 _0201_
*830 _0202_
*831 _0203_
*832 _0204_
*833 _0205_
*834 _0206_
*835 _0207_
*836 _0208_
*837 _0209_
*838 _0210_
*839 _0211_
*840 _0212_
*841 _0213_
*842 _0214_
*843 _0215_
*844 _0216_
*845 _0217_
*846 _0218_
*847 _0219_
*848 _0220_
*849 _0221_
*850 _0222_
*851 _0223_
*852 _0224_
*853 _0225_
*854 _0226_
*855 _0227_
*856 _0228_
*857 _0229_
*858 _0230_
*859 _0231_
*860 _0232_
*861 _0233_
*862 _0234_
*863 _0235_
*864 _0236_
*865 _0237_
*866 _0238_
*867 _0239_
*868 _0240_
*869 _0241_
*870 _0242_
*871 _0243_
*872 _0244_
*873 _0245_
*874 _0246_
*875 _0247_
*876 _0248_
*877 _0249_
*878 _0250_
*879 _0251_
*880 _0252_
*881 _0253_
*882 _0254_
*883 _0255_
*884 _0256_
*885 _0257_
*886 _0258_
*887 _0259_
*888 _0260_
*889 _0261_
*890 _0262_
*891 _0263_
*892 _0264_
*893 _0265_
*894 _0266_
*895 _0267_
*896 _0268_
*897 _0269_
*898 _0270_
*899 _0271_
*900 _0272_
*901 _0273_
*902 _0274_
*903 _0275_
*904 _0276_
*905 _0277_
*906 _0278_
*907 _0279_
*908 _0280_
*909 _0281_
*910 _0282_
*911 _0283_
*912 _0284_
*913 _0285_
*914 _0286_
*915 _0287_
*916 _0288_
*917 _0289_
*918 _0290_
*919 _0291_
*920 _0292_
*921 _0293_
*922 _0294_
*923 _0295_
*924 _0296_
*925 _0297_
*926 _0298_
*927 _0299_
*928 _0300_
*929 _0301_
*930 _0302_
*931 _0303_
*932 _0304_
*933 _0305_
*934 _0306_
*935 _0307_
*936 _0308_
*937 _0309_
*938 _0310_
*939 _0311_
*940 _0312_
*941 _0313_
*942 _0314_
*943 _0315_
*944 _0316_
*945 _0317_
*946 _0318_
*947 _0319_
*948 _0320_
*949 _0321_
*950 _0322_
*951 _0323_
*952 _0324_
*953 _0325_
*954 _0326_
*955 _0327_
*956 _0328_
*957 _0329_
*958 _0330_
*959 _0331_
*960 _0332_
*961 _0333_
*962 _0334_
*963 _0335_
*964 _0336_
*965 _0337_
*966 _0338_
*967 _0339_
*968 _0340_
*969 _0341_
*970 _0342_
*971 _0343_
*972 _0344_
*973 _0345_
*974 _0346_
*975 _0347_
*976 _0348_
*977 _0349_
*978 _0350_
*979 _0351_
*980 _0352_
*981 _0353_
*982 _0354_
*983 _0355_
*984 _0356_
*985 _0357_
*986 _0358_
*987 _0359_
*988 _0360_
*989 _0361_
*990 _0362_
*991 _0363_
*992 _0364_
*993 _0365_
*994 _0366_
*995 _0367_
*996 _0368_
*997 _0369_
*998 _0370_
*999 _0371_
*1000 _0372_
*1001 _0373_
*1002 _0374_
*1003 _0375_
*1004 _0376_
*1005 _0377_
*1006 _0378_
*1007 _0379_
*1008 _0380_
*1009 _0381_
*1010 _0382_
*1011 _0383_
*1012 _0384_
*1013 _0385_
*1014 _0386_
*1015 _0387_
*1016 _0388_
*1017 _0389_
*1018 _0390_
*1019 _0391_
*1020 _0392_
*1021 _0393_
*1022 _0394_
*1023 _0395_
*1024 _0396_
*1025 _0397_
*1026 _0398_
*1027 _0399_
*1028 _0400_
*1029 _0401_
*1030 _0402_
*1031 _0403_
*1032 _0404_
*1033 _0405_
*1034 _0406_
*1035 _0407_
*1036 _0408_
*1037 _0409_
*1038 _0410_
*1039 _0411_
*1040 _0412_
*1041 _0413_
*1042 _0414_
*1043 _0415_
*1044 _0416_
*1045 _0417_
*1046 _0418_
*1047 _0419_
*1048 _0420_
*1049 _0421_
*1050 _0422_
*1051 _0423_
*1052 _0424_
*1053 _0425_
*1054 _0426_
*1055 _0427_
*1056 _0428_
*1057 _0429_
*1058 _0430_
*1059 _0431_
*1060 _0432_
*1061 _0433_
*1062 _0434_
*1063 _0435_
*1064 _0436_
*1065 _0437_
*1066 _0438_
*1067 _0439_
*1068 _0440_
*1069 _0441_
*1070 _0442_
*1071 _0443_
*1072 _0444_
*1073 _0445_
*1074 _0446_
*1075 _0447_
*1076 _0448_
*1077 _0449_
*1078 _0450_
*1079 _0451_
*1080 _0452_
*1081 _0453_
*1082 _0454_
*1083 _0455_
*1084 _0456_
*1085 _0457_
*1086 _0458_
*1087 _0459_
*1088 _0460_
*1089 _0461_
*1090 _0462_
*1091 _0463_
*1092 _0464_
*1093 _0465_
*1094 clknet_0__0199_
*1095 clknet_0__0200_
*1096 clknet_0__0202_
*1097 clknet_0_io_in[0]
*1098 clknet_1_0__leaf__0199_
*1099 clknet_1_0__leaf__0200_
*1100 clknet_1_0__leaf__0202_
*1101 clknet_1_0__leaf_io_in[0]
*1102 clknet_1_1__leaf__0199_
*1103 clknet_1_1__leaf__0200_
*1104 clknet_1_1__leaf__0202_
*1105 clknet_1_1__leaf_io_in[0]
*1106 desition\.A\[0\]
*1107 desition\.A\[10\]
*1108 desition\.A\[11\]
*1109 desition\.A\[12\]
*1110 desition\.A\[13\]
*1111 desition\.A\[14\]
*1112 desition\.A\[15\]
*1113 desition\.A\[16\]
*1114 desition\.A\[17\]
*1115 desition\.A\[18\]
*1116 desition\.A\[19\]
*1117 desition\.A\[1\]
*1118 desition\.A\[2\]
*1119 desition\.A\[3\]
*1120 desition\.A\[4\]
*1121 desition\.A\[5\]
*1122 desition\.A\[6\]
*1123 desition\.A\[7\]
*1124 desition\.A\[8\]
*1125 desition\.A\[9\]
*1126 desition\.B\[0\]
*1127 desition\.B\[10\]
*1128 desition\.B\[11\]
*1129 desition\.B\[12\]
*1130 desition\.B\[13\]
*1131 desition\.B\[14\]
*1132 desition\.B\[15\]
*1133 desition\.B\[16\]
*1134 desition\.B\[17\]
*1135 desition\.B\[18\]
*1136 desition\.B\[19\]
*1137 desition\.B\[1\]
*1138 desition\.B\[2\]
*1139 desition\.B\[3\]
*1140 desition\.B\[4\]
*1141 desition\.B\[5\]
*1142 desition\.B\[6\]
*1143 desition\.B\[7\]
*1144 desition\.B\[8\]
*1145 desition\.B\[9\]
*1146 desition\.C
*1147 desition\.comp
*1148 net1
*1149 net10
*1150 net11
*1151 net12
*1152 net13
*1153 net14
*1154 net15
*1155 net16
*1156 net17
*1157 net18
*1158 net19
*1159 net2
*1160 net20
*1161 net21
*1162 net22
*1163 net23
*1164 net3
*1165 net4
*1166 net5
*1167 net6
*1168 net7
*1169 net8
*1170 net9
*1171 ANTENNA_1
*1172 FILLER_0_106
*1173 FILLER_0_113
*1174 FILLER_0_118
*1175 FILLER_0_12
*1176 FILLER_0_125
*1177 FILLER_0_132
*1178 FILLER_0_141
*1179 FILLER_0_147
*1180 FILLER_0_151
*1181 FILLER_0_162
*1182 FILLER_0_169
*1183 FILLER_0_174
*1184 FILLER_0_181
*1185 FILLER_0_188
*1186 FILLER_0_19
*1187 FILLER_0_197
*1188 FILLER_0_202
*1189 FILLER_0_214
*1190 FILLER_0_222
*1191 FILLER_0_225
*1192 FILLER_0_230
*1193 FILLER_0_242
*1194 FILLER_0_247
*1195 FILLER_0_251
*1196 FILLER_0_253
*1197 FILLER_0_26
*1198 FILLER_0_261
*1199 FILLER_0_265
*1200 FILLER_0_272
*1201 FILLER_0_281
*1202 FILLER_0_29
*1203 FILLER_0_293
*1204 FILLER_0_3
*1205 FILLER_0_51
*1206 FILLER_0_55
*1207 FILLER_0_57
*1208 FILLER_0_68
*1209 FILLER_0_75
*1210 FILLER_0_82
*1211 FILLER_0_85
*1212 FILLER_0_92
*1213 FILLER_0_99
*1214 FILLER_10_103
*1215 FILLER_10_127
*1216 FILLER_10_134
*1217 FILLER_10_141
*1218 FILLER_10_152
*1219 FILLER_10_159
*1220 FILLER_10_166
*1221 FILLER_10_178
*1222 FILLER_10_184
*1223 FILLER_10_197
*1224 FILLER_10_201
*1225 FILLER_10_205
*1226 FILLER_10_21
*1227 FILLER_10_217
*1228 FILLER_10_229
*1229 FILLER_10_237
*1230 FILLER_10_241
*1231 FILLER_10_249
*1232 FILLER_10_253
*1233 FILLER_10_259
*1234 FILLER_10_263
*1235 FILLER_10_27
*1236 FILLER_10_275
*1237 FILLER_10_287
*1238 FILLER_10_29
*1239 FILLER_10_3
*1240 FILLER_10_50
*1241 FILLER_10_58
*1242 FILLER_10_64
*1243 FILLER_10_73
*1244 FILLER_10_81
*1245 FILLER_10_85
*1246 FILLER_10_91
*1247 FILLER_10_99
*1248 FILLER_11_106
*1249 FILLER_11_113
*1250 FILLER_11_12
*1251 FILLER_11_122
*1252 FILLER_11_128
*1253 FILLER_11_149
*1254 FILLER_11_156
*1255 FILLER_11_163
*1256 FILLER_11_167
*1257 FILLER_11_169
*1258 FILLER_11_173
*1259 FILLER_11_177
*1260 FILLER_11_184
*1261 FILLER_11_196
*1262 FILLER_11_208
*1263 FILLER_11_216
*1264 FILLER_11_221
*1265 FILLER_11_225
*1266 FILLER_11_237
*1267 FILLER_11_246
*1268 FILLER_11_258
*1269 FILLER_11_266
*1270 FILLER_11_270
*1271 FILLER_11_278
*1272 FILLER_11_281
*1273 FILLER_11_286
*1274 FILLER_11_298
*1275 FILLER_11_3
*1276 FILLER_11_36
*1277 FILLER_11_44
*1278 FILLER_11_54
*1279 FILLER_11_57
*1280 FILLER_11_63
*1281 FILLER_11_70
*1282 FILLER_11_74
*1283 FILLER_11_81
*1284 FILLER_11_85
*1285 FILLER_12_100
*1286 FILLER_12_12
*1287 FILLER_12_122
*1288 FILLER_12_129
*1289 FILLER_12_136
*1290 FILLER_12_141
*1291 FILLER_12_147
*1292 FILLER_12_156
*1293 FILLER_12_163
*1294 FILLER_12_171
*1295 FILLER_12_177
*1296 FILLER_12_189
*1297 FILLER_12_194
*1298 FILLER_12_197
*1299 FILLER_12_202
*1300 FILLER_12_209
*1301 FILLER_12_218
*1302 FILLER_12_229
*1303 FILLER_12_236
*1304 FILLER_12_243
*1305 FILLER_12_25
*1306 FILLER_12_250
*1307 FILLER_12_253
*1308 FILLER_12_261
*1309 FILLER_12_265
*1310 FILLER_12_274
*1311 FILLER_12_281
*1312 FILLER_12_288
*1313 FILLER_12_29
*1314 FILLER_12_296
*1315 FILLER_12_3
*1316 FILLER_12_41
*1317 FILLER_12_54
*1318 FILLER_12_62
*1319 FILLER_12_69
*1320 FILLER_12_82
*1321 FILLER_12_85
*1322 FILLER_12_92
*1323 FILLER_13_107
*1324 FILLER_13_111
*1325 FILLER_13_113
*1326 FILLER_13_121
*1327 FILLER_13_127
*1328 FILLER_13_13
*1329 FILLER_13_133
*1330 FILLER_13_137
*1331 FILLER_13_141
*1332 FILLER_13_148
*1333 FILLER_13_154
*1334 FILLER_13_158
*1335 FILLER_13_165
*1336 FILLER_13_169
*1337 FILLER_13_174
*1338 FILLER_13_180
*1339 FILLER_13_184
*1340 FILLER_13_196
*1341 FILLER_13_208
*1342 FILLER_13_220
*1343 FILLER_13_225
*1344 FILLER_13_237
*1345 FILLER_13_249
*1346 FILLER_13_254
*1347 FILLER_13_26
*1348 FILLER_13_261
*1349 FILLER_13_273
*1350 FILLER_13_279
*1351 FILLER_13_281
*1352 FILLER_13_287
*1353 FILLER_13_291
*1354 FILLER_13_3
*1355 FILLER_13_42
*1356 FILLER_13_53
*1357 FILLER_13_57
*1358 FILLER_13_66
*1359 FILLER_13_74
*1360 FILLER_13_80
*1361 FILLER_13_89
*1362 FILLER_13_97
*1363 FILLER_14_102
*1364 FILLER_14_111
*1365 FILLER_14_135
*1366 FILLER_14_139
*1367 FILLER_14_141
*1368 FILLER_14_15
*1369 FILLER_14_163
*1370 FILLER_14_170
*1371 FILLER_14_176
*1372 FILLER_14_180
*1373 FILLER_14_192
*1374 FILLER_14_197
*1375 FILLER_14_203
*1376 FILLER_14_207
*1377 FILLER_14_213
*1378 FILLER_14_217
*1379 FILLER_14_224
*1380 FILLER_14_236
*1381 FILLER_14_248
*1382 FILLER_14_253
*1383 FILLER_14_259
*1384 FILLER_14_26
*1385 FILLER_14_263
*1386 FILLER_14_275
*1387 FILLER_14_286
*1388 FILLER_14_29
*1389 FILLER_14_298
*1390 FILLER_14_3
*1391 FILLER_14_40
*1392 FILLER_14_55
*1393 FILLER_14_66
*1394 FILLER_14_76
*1395 FILLER_14_85
*1396 FILLER_14_94
*1397 FILLER_15_108
*1398 FILLER_15_113
*1399 FILLER_15_118
*1400 FILLER_15_122
*1401 FILLER_15_128
*1402 FILLER_15_136
*1403 FILLER_15_141
*1404 FILLER_15_147
*1405 FILLER_15_15
*1406 FILLER_15_153
*1407 FILLER_15_164
*1408 FILLER_15_169
*1409 FILLER_15_174
*1410 FILLER_15_182
*1411 FILLER_15_186
*1412 FILLER_15_193
*1413 FILLER_15_200
*1414 FILLER_15_207
*1415 FILLER_15_214
*1416 FILLER_15_218
*1417 FILLER_15_222
*1418 FILLER_15_225
*1419 FILLER_15_23
*1420 FILLER_15_230
*1421 FILLER_15_239
*1422 FILLER_15_246
*1423 FILLER_15_261
*1424 FILLER_15_268
*1425 FILLER_15_281
*1426 FILLER_15_290
*1427 FILLER_15_298
*1428 FILLER_15_3
*1429 FILLER_15_33
*1430 FILLER_15_45
*1431 FILLER_15_54
*1432 FILLER_15_57
*1433 FILLER_15_69
*1434 FILLER_15_79
*1435 FILLER_15_87
*1436 FILLER_16_101
*1437 FILLER_16_109
*1438 FILLER_16_120
*1439 FILLER_16_131
*1440 FILLER_16_138
*1441 FILLER_16_141
*1442 FILLER_16_163
*1443 FILLER_16_170
*1444 FILLER_16_182
*1445 FILLER_16_194
*1446 FILLER_16_197
*1447 FILLER_16_202
*1448 FILLER_16_214
*1449 FILLER_16_226
*1450 FILLER_16_241
*1451 FILLER_16_249
*1452 FILLER_16_25
*1453 FILLER_16_253
*1454 FILLER_16_259
*1455 FILLER_16_263
*1456 FILLER_16_275
*1457 FILLER_16_281
*1458 FILLER_16_288
*1459 FILLER_16_29
*1460 FILLER_16_295
*1461 FILLER_16_3