*SPEF "ieee 1481-1999"
*DESIGN "gameshow_buzzer"
*DATE "11:11:11 Fri 11 11, 1111"
*VENDOR "OpenRCX"
*PROGRAM "Parallel Extraction"
*VERSION "1.0"
*DESIGN_FLOW "NAME_SCOPE LOCAL" "PIN_CAP NONE"
*DIVIDER /
*DELIMITER :
*BUS_DELIMITER []
*T_UNIT 1 NS
*C_UNIT 1 PF
*R_UNIT 1 OHM
*L_UNIT 1 HENRY

*NAME_MAP
*1 io_in[0]
*2 io_in[1]
*3 io_in[2]
*4 io_in[3]
*5 io_in[4]
*6 io_in[5]
*7 io_in[6]
*8 io_in[7]
*9 io_out[0]
*10 io_out[1]
*11 io_out[2]
*12 io_out[3]
*13 io_out[4]
*14 io_out[5]
*15 net8
*16 net9
*19 _00_
*20 _01_
*21 _02_
*22 _03_
*23 _04_
*24 _05_
*25 _06_
*26 _07_
*27 _08_
*28 _09_
*29 _10_
*30 _11_
*31 _12_
*32 _13_
*33 clknet_0_io_in[0]
*34 clknet_1_0__leaf_io_in[0]
*35 clknet_1_1__leaf_io_in[0]
*36 net1
*37 net2
*38 net3
*39 net4
*40 net5
*41 net6
*42 net7
*43 FILLER_0_109
*44 FILLER_0_113
*45 FILLER_0_125
*46 FILLER_0_137
*47 FILLER_0_141
*48 FILLER_0_153
*49 FILLER_0_165
*50 FILLER_0_169
*51 FILLER_0_181
*52 FILLER_0_193
*53 FILLER_0_197
*54 FILLER_0_209
*55 FILLER_0_221
*56 FILLER_0_225
*57 FILLER_0_237
*58 FILLER_0_249
*59 FILLER_0_253
*60 FILLER_0_26
*61 FILLER_0_265
*62 FILLER_0_277
*63 FILLER_0_281
*64 FILLER_0_29
*65 FILLER_0_293
*66 FILLER_0_3
*67 FILLER_0_54
*68 FILLER_0_57
*69 FILLER_0_69
*70 FILLER_0_81
*71 FILLER_0_85
*72 FILLER_0_97
*73 FILLER_10_109
*74 FILLER_10_121
*75 FILLER_10_133
*76 FILLER_10_139
*77 FILLER_10_141
*78 FILLER_10_15
*79 FILLER_10_153
*80 FILLER_10_165
*81 FILLER_10_177
*82 FILLER_10_189
*83 FILLER_10_195
*84 FILLER_10_197
*85 FILLER_10_209
*86 FILLER_10_221
*87 FILLER_10_233
*88 FILLER_10_245
*89 FILLER_10_251
*90 FILLER_10_253
*91 FILLER_10_265
*92 FILLER_10_27
*93 FILLER_10_277
*94 FILLER_10_289
*95 FILLER_10_29
*96 FILLER_10_297
*97 FILLER_10_3
*98 FILLER_10_41
*99 FILLER_10_53
*100 FILLER_10_65
*101 FILLER_10_77
*102 FILLER_10_83
*103 FILLER_10_85
*104 FILLER_10_97
*105 FILLER_11_105
*106 FILLER_11_111
*107 FILLER_11_113
*108 FILLER_11_125
*109 FILLER_11_137
*110 FILLER_11_149
*111 FILLER_11_15
*112 FILLER_11_161
*113 FILLER_11_167
*114 FILLER_11_169
*115 FILLER_11_181
*116 FILLER_11_193
*117 FILLER_11_205
*118 FILLER_11_217
*119 FILLER_11_223
*120 FILLER_11_225
*121 FILLER_11_237
*122 FILLER_11_249
*123 FILLER_11_261
*124 FILLER_11_27
*125 FILLER_11_273
*126 FILLER_11_279
*127 FILLER_11_281
*128 FILLER_11_293
*129 FILLER_11_3
*130 FILLER_11_39
*131 FILLER_11_51
*132 FILLER_11_55
*133 FILLER_11_57
*134 FILLER_11_69
*135 FILLER_11_81
*136 FILLER_11_93
*137 FILLER_12_109
*138 FILLER_12_121
*139 FILLER_12_133
*140 FILLER_12_139
*141 FILLER_12_141
*142 FILLER_12_153
*143 FILLER_12_165
*144 FILLER_12_177
*145 FILLER_12_189
*146 FILLER_12_195
*147 FILLER_12_197
*148 FILLER_12_20
*149 FILLER_12_209
*150 FILLER_12_221
*151 FILLER_12_233
*152 FILLER_12_245
*153 FILLER_12_251
*154 FILLER_12_253
*155 FILLER_12_265
*156 FILLER_12_277
*157 FILLER_12_289
*158 FILLER_12_29
*159 FILLER_12_297
*160 FILLER_12_3
*161 FILLER_12_41
*162 FILLER_12_53
*163 FILLER_12_65
*164 FILLER_12_77
*165 FILLER_12_8
*166 FILLER_12_83
*167 FILLER_12_85
*168 FILLER_12_97
*169 FILLER_13_105
*170 FILLER_13_111
*171 FILLER_13_113
*172 FILLER_13_125
*173 FILLER_13_137
*174 FILLER_13_149
*175 FILLER_13_15
*176 FILLER_13_161
*177 FILLER_13_167
*178 FILLER_13_169
*179 FILLER_13_181
*180 FILLER_13_193
*181 FILLER_13_205
*182 FILLER_13_217
*183 FILLER_13_223
*184 FILLER_13_225
*185 FILLER_13_237
*186 FILLER_13_249
*187 FILLER_13_261
*188 FILLER_13_27
*189 FILLER_13_273
*190 FILLER_13_279
*191 FILLER_13_281
*192 FILLER_13_293
*193 FILLER_13_3
*194 FILLER_13_39
*195 FILLER_13_51
*196 FILLER_13_55
*197 FILLER_13_57
*198 FILLER_13_69
*199 FILLER_13_81
*200 FILLER_13_93
*201 FILLER_14_109
*202 FILLER_14_121
*203 FILLER_14_133
*204 FILLER_14_139
*205 FILLER_14_141
*206 FILLER_14_15
*207 FILLER_14_153
*208 FILLER_14_165
*209 FILLER_14_177
*210 FILLER_14_189
*211 FILLER_14_195
*212 FILLER_14_197
*213 FILLER_14_209
*214 FILLER_14_221
*215 FILLER_14_233
*216 FILLER_14_245
*217 FILLER_14_251
*218 FILLER_14_253
*219 FILLER_14_265
*220 FILLER_14_27
*221 FILLER_14_277
*222 FILLER_14_289
*223 FILLER_14_29
*224 FILLER_14_297
*225 FILLER_14_3
*226 FILLER_14_41
*227 FILLER_14_53
*228 FILLER_14_65
*229 FILLER_14_77
*230 FILLER_14_83
*231 FILLER_14_85
*232 FILLER_14_97
*233 FILLER_15_105
*234 FILLER_15_111
*235 FILLER_15_113
*236 FILLER_15_125
*237 FILLER_15_137
*238 FILLER_15_149
*239 FILLER_15_15
*240 FILLER_15_161
*241 FILLER_15_167
*242 FILLER_15_169
*243 FILLER_15_181
*244 FILLER_15_193
*245 FILLER_15_205
*246 FILLER_15_217
*247 FILLER_15_223
*248 FILLER_15_225
*249 FILLER_15_237
*250 FILLER_15_249
*251 FILLER_15_261
*252 FILLER_15_27
*253 FILLER_15_273
*254 FILLER_15_279
*255 FILLER_15_281
*256 FILLER_15_293
*257 FILLER_15_3
*258 FILLER_15_39
*259 FILLER_15_51
*260 FILLER_15_55
*261 FILLER_15_57
*262 FILLER_15_69
*263 FILLER_15_81
*264 FILLER_15_93
*265 FILLER_16_109
*266 FILLER_16_121
*267 FILLER_16_133
*268 FILLER_16_139
*269 FILLER_16_141
*270 FILLER_16_153
*271 FILLER_16_165
*272 FILLER_16_177
*273 FILLER_16_189
*274 FILLER_16_195
*275 FILLER_16_197
*276 FILLER_16_20
*277 FILLER_16_209
*278 FILLER_16_221
*279 FILLER_16_233
*280 FILLER_16_245
*281 FILLER_16_251
*282 FILLER_16_253
*283 FILLER_16_265
*284 FILLER_16_277
*285 FILLER_16_289
*286 FILLER_16_29
*287 FILLER_16_297
*288 FILLER_16_3
*289 FILLER_16_41
*290 FILLER_16_53
*291 FILLER_16_65
*292 FILLER_16_77
*293 FILLER_16_8
*294 FILLER_16_83
*295 FILLER_16_85
*296 FILLER_16_97
*297 FILLER_17_105
*298 FILLER_17_111
*299 FILLER_17_113
*300 FILLER_17_125
*301 FILLER_17_137
*302 FILLER_17_149
*303 FILLER_17_15
*304 FILLER_17_161
*305 FILLER_17_167
*306 FILLER_17_169
*307 FILLER_17_181
*308 FILLER_17_193
*309 FILLER_17_205
*310 FILLER_17_217
*311 FILLER_17_223
*312 FILLER_17_225
*313 FILLER_17_237
*314 FILLER_17_249
*315 FILLER_17_261
*316 FILLER_17_27
*317 FILLER_17_273
*318 FILLER_17_279
*319 FILLER_17_281
*320 FILLER_17_293
*321 FILLER_17_3
*322 FILLER_17_39
*323 FILLER_17_51
*324 FILLER_17_55
*325 FILLER_17_57
*326 FILLER_17_69
*327 FILLER_17_81
*328 FILLER_17_93
*329 FILLER_18_109
*330 FILLER_18_12
*331 FILLER_18_121
*332 FILLER_18_133
*333 FILLER_18_139
*334 FILLER_18_141
*335 FILLER_18_153
*336 FILLER_18_165
*337 FILLER_18_177
*338 FILLER_18_189
*339 FILLER_18_195
*340 FILLER_18_197
*341 FILLER_18_209
*342 FILLER_18_221
*343 FILLER_18_233
*344 FILLER_18_24
*345 FILLER_18_245
*346 FILLER_18_251
*347 FILLER_18_253
*348 FILLER_18_265
*349 FILLER_18_277
*350 FILLER_18_289
*351 FILLER_18_29
*352 FILLER_18_297
*353 FILLER_18_3
*354 FILLER_18_41
*355 FILLER_18_53
*356 FILLER_18_65
*357 FILLER_18_77
*358 FILLER_18_83
*359 FILLER_18_85
*360 FILLER_18_97
*361 FILLER_19_105
*362 FILLER_19_111
*363 FILLER_19_113
*364 FILLER_19_125
*365 FILLER_19_137
*366 FILLER_19_149
*367 FILLER_19_15
*368 FILLER_19_161
*369 FILLER_19_167
*370 FILLER_19_169
*371 FILLER_19_181
*372 FILLER_19_193
*373 FILLER_19_205
*374 FILLER_19_217
*375 FILLER_19_223
*376 FILLER_19_225
*377 FILLER_19_237
*378 FILLER_19_249
*379 FILLER_19_261
*380 FILLER_19_273
*381 FILLER_19_279
*382 FILLER_19_28
*383 FILLER_19_281
*384 FILLER_19_293
*385 FILLER_19_3
*386 FILLER_19_40
*387 FILLER_19_52
*388 FILLER_19_57
*389 FILLER_19_69
*390 FILLER_19_81
*391 FILLER_19_93
*392 FILLER_1_105
*393 FILLER_1_111
*394 FILLER_1_113
*395 FILLER_1_125
*396 FILLER_1_137
*397 FILLER_1_149
*398 FILLER_1_161
*399 FILLER_1_167
*400 FILLER_1_169
*401 FILLER_1_181
*402 FILLER_1_193
*403 FILLER_1_205
*404 FILLER_1_217
*405 FILLER_1_223
*406 FILLER_1_225
*407 FILLER_1_237
*408 FILLER_1_249
*409 FILLER_1_261
*410 FILLER_1_273
*411 FILLER_1_279
*412 FILLER_1_28
*413 FILLER_1_281
*414 FILLER_1_293
*415 FILLER_1_3
*416 FILLER_1_40
*417 FILLER_1_52
*418 FILLER_1_57
*419 FILLER_1_69
*420 FILLER_1_81
*421 FILLER_1_93
*422 FILLER_20_109
*423 FILLER_20_121
*424 FILLER_20_133
*425 FILLER_20_139
*426 FILLER_20_141
*427 FILLER_20_153
*428 FILLER_20_165
*429 FILLER_20_177
*430 FILLER_20_189
*431 FILLER_20_19
*432 FILLER_20_195
*433 FILLER_20_197
*434 FILLER_20_209
*435 FILLER_20_221
*436 FILLER_20_233
*437 FILLER_20_245
*438 FILLER_20_251
*439 FILLER_20_253
*440 FILLER_20_26
*441 FILLER_20_265
*442 FILLER_20_277
*443 FILLER_20_289
*444 FILLER_20_29
*445 FILLER_20_297
*446 FILLER_20_3
*447 FILLER_20_41
*448 FILLER_20_53
*449 FILLER_20_65
*450 FILLER_20_77
*451 FILLER_20_8
*452 FILLER_20_83
*453 FILLER_20_85
*454 FILLER_20_97
*455 FILLER_21_105
*456 FILLER_21_11
*457 FILLER_21_111
*458 FILLER_21_113
*459 FILLER_21_125
*460 FILLER_21_137
*461 FILLER_21_149
*462 FILLER_21_15
*463 FILLER_21_161
*464 FILLER_21_167
*465 FILLER_21_169
*466 FILLER_21_181
*467 FILLER_21_193
*468 FILLER_21_205
*469 FILLER_21_217
*470 FILLER_21_223
*471 FILLER_21_225
*472 FILLER_21_237
*473 FILLER_21_249
*474 FILLER_21_26
*475 FILLER_21_261
*476 FILLER_21_273
*477 FILLER_21_279
*478 FILLER_21_281
*479 FILLER_21_293
*480 FILLER_21_3
*481 FILLER_21_38
*482 FILLER_21_50
*483 FILLER_21_57
*484 FILLER_21_69
*485 FILLER_21_81
*486 FILLER_21_93
*487 FILLER_22_109
*488 FILLER_22_121
*489 FILLER_22_133
*490 FILLER_22_139
*491 FILLER_22_141
*492 FILLER_22_15
*493 FILLER_22_153
*494 FILLER_22_165
*495 FILLER_22_177
*496 FILLER_22_189
*497 FILLER_22_195
*498 FILLER_22_197
*499 FILLER_22_209
*500 FILLER_22_221
*501 FILLER_22_233
*502 FILLER_22_245
*503 FILLER_22_251
*504 FILLER_22_253
*505 FILLER_22_265
*506 FILLER_22_27
*507 FILLER_22_277
*508 FILLER_22_289
*509 FILLER_22_29
*510 FILLER_22_297
*511 FILLER_22_3
*512 FILLER_22_41
*513 FILLER_22_53
*514 FILLER_22_65
*515 FILLER_22_77
*516 FILLER_22_83
*517 FILLER_22_85
*518 FILLER_22_97
*519 FILLER_23_105
*520 FILLER_23_111
*521 FILLER_23_113
*522 FILLER_23_125
*523 FILLER_23_137
*524 FILLER_23_149
*525 FILLER_23_161
*526 FILLER_23_167
*527 FILLER_23_169
*528 FILLER_23_181
*529 FILLER_23_193
*530 FILLER_23_20
*531 FILLER_23_205
*532 FILLER_23_217
*533 FILLER_23_223
*534 FILLER_23_225
*535 FILLER_23_237
*536 FILLER_23_249
*537 FILLER_23_261
*538 FILLER_23_273
*539 FILLER_23_279
*540 FILLER_23_281
*541 FILLER_23_293
*542 FILLER_23_3
*543 FILLER_23_32
*544 FILLER_23_44
*545 FILLER_23_57
*546 FILLER_23_69
*547 FILLER_23_8
*548 FILLER_23_81
*549 FILLER_23_93
*550 FILLER_24_109
*551 FILLER_24_12
*552 FILLER_24_121
*553 FILLER_24_133
*554 FILLER_24_139
*555 FILLER_24_141
*556 FILLER_24_153
*557 FILLER_24_165
*558 FILLER_24_177
*559 FILLER_24_189
*560 FILLER_24_195
*561 FILLER_24_197
*562 FILLER_24_20
*563 FILLER_24_209
*564 FILLER_24_221
*565 FILLER_24_233
*566 FILLER_24_245
*567 FILLER_24_251
*568 FILLER_24_253
*569 FILLER_24_26
*570 FILLER_24_265
*571 FILLER_24_277
*572 FILLER_24_289
*573 FILLER_24_29
*574 FILLER_24_297
*575 FILLER_24_3
*576 FILLER_24_34
*577 FILLER_24_46
*578 FILLER_24_58
*579 FILLER_24_70
*580 FILLER_24_82
*581 FILLER_24_85
*582 FILLER_24_97
*583 FILLER_25_105
*584 FILLER_25_111
*585 FILLER_25_113
*586 FILLER_25_125
*587 FILLER_25_137
*588 FILLER_25_149
*589 FILLER_25_15
*590 FILLER_25_161
*591 FILLER_25_167
*592 FILLER_25_169
*593 FILLER_25_181
*594 FILLER_25_193
*595 FILLER_25_205
*596 FILLER_25_217
*597 FILLER_25_223
*598 FILLER_25_225
*599 FILLER_25_237
*600 FILLER_25_249
*601 FILLER_25_261
*602 FILLER_25_27
*603 FILLER_25_273
*604 FILLER_25_279
*605 FILLER_25_281
*606 FILLER_25_293
*607 FILLER_25_3
*608 FILLER_25_31
*609 FILLER_25_35
*610 FILLER_25_47
*611 FILLER_25_55
*612 FILLER_25_57
*613 FILLER_25_69
*614 FILLER_25_81
*615 FILLER_25_93
*616 FILLER_26_109
*617 FILLER_26_121
*618 FILLER_26_133
*619 FILLER_26_139
*620 FILLER_26_141
*621 FILLER_26_153
*622 FILLER_26_165
*623 FILLER_26_177
*624 FILLER_26_189
*625 FILLER_26_195
*626 FILLER_26_197
*627 FILLER_26_20
*628 FILLER_26_209
*629 FILLER_26_221
*630 FILLER_26_233
*631 FILLER_26_245
*632 FILLER_26_251
*633 FILLER_26_253
*634 FILLER_26_265
*635 FILLER_26_277
*636 FILLER_26_289
*637 FILLER_26_29
*638 FILLER_26_297
*639 FILLER_26_3
*640 FILLER_26_41
*641 FILLER_26_53
*642 FILLER_26_65
*643 FILLER_26_77
*644 FILLER_26_8
*645 FILLER_26_83
*646 FILLER_26_85
*647 FILLER_26_97
*648 FILLER_27_105
*649 FILLER_27_111
*650 FILLER_27_113
*651 FILLER_27_12
*652 FILLER_27_125
*653 FILLER_27_137
*654 FILLER_27_149
*655 FILLER_27_161
*656 FILLER_27_167
*657 FILLER_27_169
*658 FILLER_27_181
*659 FILLER_27_193
*660 FILLER_27_205
*661 FILLER_27_217
*662 FILLER_27_223
*663 FILLER_27_225
*664 FILLER_27_237
*665 FILLER_27_24
*666 FILLER_27_249
*667 FILLER_27_261
*668 FILLER_27_273
*669 FILLER_27_279
*670 FILLER_27_281
*671 FILLER_27_293
*672 FILLER_27_3
*673 FILLER_27_36
*674 FILLER_27_48
*675 FILLER_27_57
*676 FILLER_27_69
*677 FILLER_27_81
*678 FILLER_27_93
*679 FILLER_28_109
*680 FILLER_28_121
*681 FILLER_28_133
*682 FILLER_28_139
*683 FILLER_28_141
*684 FILLER_28_15
*685 FILLER_28_153
*686 FILLER_28_165
*687 FILLER_28_177
*688 FILLER_28_189
*689 FILLER_28_195
*690 FILLER_28_197
*691 FILLER_28_209
*692 FILLER_28_221
*693 FILLER_28_233
*694 FILLER_28_245
*695 FILLER_28_251
*696 FILLER_28_253
*697 FILLER_28_265
*698 FILLER_28_27
*699 FILLER_28_277
*700 FILLER_28_289
*701 FILLER_28_29
*702 FILLER_28_297
*703 FILLER_28_3
*704 FILLER_28_41
*705 FILLER_28_53
*706 FILLER_28_65
*707 FILLER_28_77
*708 FILLER_28_83
*709 FILLER_28_85
*710 FILLER_28_97
*711 FILLER_29_105
*712 FILLER_29_111
*713 FILLER_29_113
*714 FILLER_29_125
*715 FILLER_29_137
*716 FILLER_29_149
*717 FILLER_29_161
*718 FILLER_29_167
*719 FILLER_29_169
*720 FILLER_29_181
*721 FILLER_29_193
*722 FILLER_29_205
*723 FILLER_29_217
*724 FILLER_29_22
*725 FILLER_29_223
*726 FILLER_29_225
*727 FILLER_29_237
*728 FILLER_29_249
*729 FILLER_29_261
*730 FILLER_29_273
*731 FILLER_29_279
*732 FILLER_29_281
*733 FILLER_29_293
*734 FILLER_29_3
*735 FILLER_29_34
*736 FILLER_29_46
*737 FILLER_29_54
*738 FILLER_29_57
*739 FILLER_29_69
*740 FILLER_29_81
*741 FILLER_29_93
*742 FILLER_2_109
*743 FILLER_2_121
*744 FILLER_2_133
*745 FILLER_2_139
*746 FILLER_2_141
*747 FILLER_2_153
*748 FILLER_2_165
*749 FILLER_2_177
*750 FILLER_2_189
*751 FILLER_2_195
*752 FILLER_2_197
*753 FILLER_2_209
*754 FILLER_2_221
*755 FILLER_2_233
*756 FILLER_2_245
*757 FILLER_2_25
*758 FILLER_2_251
*759 FILLER_2_253
*760 FILLER_2_265
*761 FILLER_2_277
*762 FILLER_2_289
*763 FILLER_2_29
*764 FILLER_2_297
*765 FILLER_2_3
*766 FILLER_2_54
*767 FILLER_2_66
*768 FILLER_2_78
*769 FILLER_2_85
*770 FILLER_2_97
*771 FILLER_30_109
*772 FILLER_30_121
*773 FILLER_30_133
*774 FILLER_30_139
*775 FILLER_30_141
*776 FILLER_30_15
*777 FILLER_30_153
*778 FILLER_30_165
*779 FILLER_30_177
*780 FILLER_30_189
*781 FILLER_30_195
*782 FILLER_30_197
*783 FILLER_30_209
*784 FILLER_30_221
*785 FILLER_30_233
*786 FILLER_30_245
*787 FILLER_30_251
*788 FILLER_30_253
*789 FILLER_30_265
*790 FILLER_30_27
*791 FILLER_30_277
*792 FILLER_30_289
*793 FILLER_30_29
*794 FILLER_30_297
*795 FILLER_30_3
*796 FILLER_30_41
*797 FILLER_30_53
*798 FILLER_30_65
*799 FILLER_30_77
*800 FILLER_30_83
*801 FILLER_30_85
*802 FILLER_30_97
*803 FILLER_31_105
*804 FILLER_31_111
*805 FILLER_31_113
*806 FILLER_31_125
*807 FILLER_31_137
*808 FILLER_31_149
*809 FILLER_31_15
*810 FILLER_31_161
*811 FILLER_31_167
*812 FILLER_31_169
*813 FILLER_31_181
*814 FILLER_31_193
*815 FILLER_31_205
*816 FILLER_31_217
*817 FILLER_31_223
*818 FILLER_31_225
*819 FILLER_31_237
*820 FILLER_31_249
*821 FILLER_31_261
*822 FILLER_31_27
*823 FILLER_31_273
*824 FILLER_31_279
*825 FILLER_31_281
*826 FILLER_31_293
*827 FILLER_31_3
*828 FILLER_31_39
*829 FILLER_31_51
*830 FILLER_31_55
*831 FILLER_31_57
*832 FILLER_31_69
*833 FILLER_31_81
*834 FILLER_31_93
*835 FILLER_32_109
*836 FILLER_32_121
*837 FILLER_32_133
*838 FILLER_32_139
*839 FILLER_32_14
*840 FILLER_32_141
*841 FILLER_32_153
*842 FILLER_32_165
*843 FILLER_32_177
*844 FILLER_32_189
*845 FILLER_32_195
*846 FILLER_32_197
*847 FILLER_32_209
*848 FILLER_32_221
*849 FILLER_32_233
*850 FILLER_32_245
*851 FILLER_32_251
*852 FILLER_32_253
*853 FILLER_32_26
*854 FILLER_32_265
*855 FILLER_32_277
*856 FILLER_32_289
*857 FILLER_32_29
*858 FILLER_32_297
*859 FILLER_32_3
*860 FILLER_32_41
*861 FILLER_32_53
*862 FILLER_32_65
*863 FILLER_32_77
*864 FILLER_32_83
*865 FILLER_32_85
*866 FILLER_32_97
*867 FILLER_33_105
*868 FILLER_33_111
*869 FILLER_33_113
*870 FILLER_33_125
*871 FILLER_33_137
*872 FILLER_33_149
*873 FILLER_33_15
*874 FILLER_33_161
*875 FILLER_33_167
*876 FILLER_33_169
*877 FILLER_33_181
*878 FILLER_33_193
*879 FILLER_33_205
*880 FILLER_33_217
*881 FILLER_33_223
*882 FILLER_33_225
*883 FILLER_33_237
*884 FILLER_33_249
*885 FILLER_33_261
*886 FILLER_33_27
*887 FILLER_33_273
*888 FILLER_33_279
*889 FILLER_33_281
*890 FILLER_33_293
*891 FILLER_33_3
*892 FILLER_33_39
*893 FILLER_33_51
*894 FILLER_33_55
*895 FILLER_33_57
*896 FILLER_33_69
*897 FILLER_33_81
*898 FILLER_33_93
*899 FILLER_34_109
*900 FILLER_34_12
*901 FILLER_34_121
*902 FILLER_34_133
*903 FILLER_34_139
*904 FILLER_34_141
*905 FILLER_34_153
*906 FILLER_34_165
*907 FILLER_34_177
*908 FILLER_34_189
*909 FILLER_34_195
*910 FILLER_34_197
*911 FILLER_34_209
*912 FILLER_34_221
*913 FILLER_34_233
*914 FILLER_34_24
*915 FILLER_34_245
*916 FILLER_34_251
*917 FILLER_34_253
*918 FILLER_34_265
*919 FILLER_34_277
*920 FILLER_34_289
*921 FILLER_34_29
*922 FILLER_34_297
*923 FILLER_34_3
*924 FILLER_34_41
*925 FILLER_34_53
*926 FILLER_34_65
*927 FILLER_34_77
*928 FILLER_34_83
*929 FILLER_34_85
*930 FILLER_34_97
*931 FILLER_35_105
*932 FILLER_35_111
*933 FILLER_35_113
*934 FILLER_35_125
*935 FILLER_35_137
*936 FILLER_35_149
*937 FILLER_35_15
*938 FILLER_35_161
*939 FILLER_35_167
*940 FILLER_35_169
*941 FILLER_35_181
*942 FILLER_35_193
*943 FILLER_35_205
*944 FILLER_35_217
*945 FILLER_35_223
*946 FILLER_35_225
*947 FILLER_35_237
*948 FILLER_35_249
*949 FILLER_35_261
*950 FILLER_35_27
*951 FILLER_35_273
*952 FILLER_35_279
*953 FILLER_35_281
*954 FILLER_35_293
*955 FILLER_35_3
*956 FILLER_35_39
*957 FILLER_35_51
*958 FILLER_35_55
*959 FILLER_35_57
*960 FILLER_35_69
*961 FILLER_35_81
*962 FILLER_35_93
*963 FILLER_36_109
*964 FILLER_36_121
*965 FILLER_36_133
*966 FILLER_36_139
*967 FILLER_36_141
*968 FILLER_36_15
*969 FILLER_36_153
*970 FILLER_36_165
*971 FILLER_36_177
*972 FILLER_36_189
*973 FILLER_36_195
*974 FILLER_36_197
*975 FILLER_36_209
*976 FILLER_36_221
*977 FILLER_36_233
*978 FILLER_36_245
*979 FILLER_36_251
*980 FILLER_36_253
*981 FILLER_36_265
*982 FILLER_36_27
*983 FILLER_36_277
*984 FILLER_36_289
*985 FILLER_36_29
*986 FILLER_36_297
*987 FILLER_36_3
*988 FILLER_36_41
*989 FILLER_36_53
*990 FILLER_36_65
*991 FILLER_36_77
*992 FILLER_36_83
*993 FILLER_36_85
*994 FILLER_36_97
*995 FILLER_37_105
*996 FILLER_37_111
*997 FILLER_37_113
*998 FILLER_37_125
*999 FILLER_37_137
*1000 FILLER_37_149
*1001 FILLER_37_15
*1002 FILLER_37_161
*1003 FILLER_37_167
*1004 FILLER_37_169
*1005 FILLER_37_181
*1006 FILLER_37_193
*1007 FILLER_37_205
*1008 FILLER_37_217
*1009 FILLER_37_223
*1010 FILLER_37_225
*1011 FILLER_37_237
*1012 FILLER_37_249
*1013 FILLER_37_261
*1014 FILLER_37_27
*1015 FILLER_37_273
*1016 FILLER_37_279
*1017 FILLER_37_281
*1018 FILLER_37_293
*1019 FILLER_37_3
*1020 FILLER_37_39
*1021 FILLER_37_51
*1022 FILLER_37_55
*1023 FILLER_37_57
*1024 FILLER_37_69
*1025 FILLER_37_81
*1026 FILLER_37_93
*1027 FILLER_38_109
*1028 FILLER_38_121
*1029 FILLER_38_133
*1030 FILLER_38_139
*1031 FILLER_38_141
*1032 FILLER_38_15
*1033 FILLER_38_153
*1034 FILLER_38_165
*1035 FILLER_38_177
*1036 FILLER_38_189
*1037 FILLER_38_195
*1038 FILLER_38_197
*1039 FILLER_38_209
*1040 FILLER_38_221
*1041 FILLER_38_233
*1042 FILLER_38_245
*1043 FILLER_38_251
*1044 FILLER_38_253
*1045 FILLER_38_265
*1046 FILLER_38_27
*1047 FILLER_38_277
*1048 FILLER_38_289
*1049 FILLER_38_29
*1050 FILLER_38_297
*1051 FILLER_38_3
*1052 FILLER_38_41
*1053 FILLER_38_53
*1054 FILLER_38_65
*1055 FILLER_38_77
*1056 FILLER_38_83
*1057 FILLER_38_85
*1058 FILLER_38_97
*1059 FILLER_39_105
*1060 FILLER_39_111
*1061 FILLER_39_113
*1062 FILLER_39_125
*1063 FILLER_39_137
*1064 FILLER_39_149
*1065 FILLER_39_15
*1066 FILLER_39_161
*1067 FILLER_39_167
*1068 FILLER_39_169
*1069 FILLER_39_181
*1070 FILLER_39_193
*1071 FILLER_39_205
*1072 FILLER_39_217
*1073 FILLER_39_223
*1074 FILLER_39_225
*1075 FILLER_39_237
*1076 FILLER_39_249
*1077 FILLER_39_261
*1078 FILLER_39_27
*1079 FILLER_39_273
*1080 FILLER_39_279
*1081 FILLER_39_281
*1082 FILLER_39_293
*1083 FILLER_39_3
*1084 FILLER_39_39
*1085 FILLER_39_51
*1086 FILLER_39_55
*1087 FILLER_39_57
*1088 FILLER_39_69
*1089 FILLER_39_81
*1090 FILLER_39_93
*1091 FILLER_3_105
*1092 FILLER_3_111
*1093 FILLER_3_113
*1094 FILLER_3_125
*1095 FILLER_3_137
*1096 FILLER_3_149
*1097 FILLER_3_161
*1098 FILLER_3_167
*1099 FILLER_3_169
*1100 FILLER_3_181
*1101 FILLER_3_193
*1102 FILLER_3_205
*1103 FILLER_3_217
*1104 FILLER_3_223
*1105 FILLER_3_225
*1106 FILLER_3_237
*1107 FILLER_3_249
*1108 FILLER_3_261
*1109 FILLER_3_273
*1110 FILLER_3_279
*1111 FILLER_3_28
*1112 FILLER_3_281
*1113 FILLER_3_293
*1114 FILLER_3_3
*1115 FILLER_3_40
*1116 FILLER_3_52
*1117 FILLER_3_57
*1118 FILLER_3_69
*1119 FILLER_3_81
*1120 FILLER_3_93
*1121 FILLER_40_109
*1122 FILLER_40_121
*1123 FILLER_40_133
*1124 FILLER_40_139
*1125 FILLER_40_141
*1126 FILLER_40_15
*1127 FILLER_40_153
*1128 FILLER_40_165
*1129 FILLER_40_177
*1130 FILLER_40_189
*1131 FILLER_40_195
*1132 FILLER_40_197
*1133 FILLER_40_209
*1134 FILLER_40_221
*1135 FILLER_40_233
*1136 FILLER_40_245
*1137 FILLER_40_251
*1138 FILLER_40_253
*1139 FILLER_40_265
*1140 FILLER_40_27
*1141 FILLER_40_277
*1142 FILLER_40_289
*1143 FILLER_40_29
*1144 FILLER_40_297
*1145 FILLER_40_3
*1146 FILLER_40_41
*1147 FILLER_40_53
*1148 FILLER_40_65
*1149 FILLER_40_77
*1150 FILLER_40_83
*1151 FILLER_40_85
*1152 FILLER_40_97
*1153 FILLER_41_105
*1154 FILLER_41_111
*1155 FILLER_41_113
*1156 FILLER_41_125
*1157 FILLER_41_137
*1158 FILLER_41_149
*1159 FILLER_41_15
*1160 FILLER_41_161
*1161 FILLER_41_167
*1162 FILLER_41_169
*1163 FILLER_41_181
*1164 FILLER_41_193
*1165 FILLER_41_205
*1166 FILLER_41_217
*1167 FILLER_41_223
*1168 FILLER_41_225
*1169 FILLER_41_237
*1170 FILLER_41_249
*1171 FILLER_41_261
*1172 FILLER_41_27
*1173 FILLER_41_273
*1174 FILLER_41_279
*1175 FILLER_41_281
*1176 FILLER_41_293
*1177 FILLER_41_3
*1178 FILLER_41_39
*1179 FILLER_41_51
*1180 FILLER_41_55
*1181 FILLER_41_57
*1182 FILLER_41_69
*1183 FILLER_41_81
*1184 FILLER_41_93
*1185 FILLER_42_109
*1186 FILLER_42_121
*1187 FILLER_42_133
*1188 FILLER_42_139
*1189 FILLER_42_141
*1190 FILLER_42_15
*1191 FILLER_42_153
*1192 FILLER_42_165
*1193 FILLER_42_177
*1194 FILLER_42_189
*1195 FILLER_42_195
*1196 FILLER_42_197
*1197 FILLER_42_209
*1198 FILLER_42_221
*1199 FILLER_42_233
*1200 FILLER_42_245
*1201 FILLER_42_251
*1202 FILLER_42_253
*1203 FILLER_42_265
*1204 FILLER_42_27
*1205 FILLER_42_277
*1206 FILLER_42_289
*1207 FILLER_42_29
*1208 FILLER_42_297
*1209 FILLER_42_3
*1210 FILLER_42_41
*1211 FILLER_42_53
*1212 FILLER_42_65
*1213 FILLER_42_77
*1214 FILLER_42_83
*1215 FILLER_42_85
*1216 FILLER_42_97
*1217 FILLER_43_105
*1218 FILLER_43_111
*1219 FILLER_43_113
*1220 FILLER_43_125
*1221 FILLER_43_137
*1222 FILLER_43_149
*1223 FILLER_43_15
*1224 FILLER_43_161
*1225 FILLER_43_167
*1226 FILLER_43_169
*1227 FILLER_43_181
*1228 FILLER_43_193
*1229 FILLER_43_205
*1230 FILLER_43_217
*1231 FILLER_43_223
*1232 FILLER_43_225
*1233 FILLER_43_237
*1234 FILLER_43_249
*1235 FILLER_43_261
*1236 FILLER_43_27
*1237 FILLER_43_273
*1238 FILLER_43_279
*1239 FILLER_43_281
*1240 FILLER_43_293
*1241 FILLER_43_3
*1242 FILLER_43_39
*1243 FILLER_43_51
*1244 FILLER_43_55
*1245 FILLER_43_57
*1246 FILLER_43_69
*1247 FILLER_43_81
*1248 FILLER_43_93
*1249 FILLER_44_109
*1250 FILLER_44_121
*1251 FILLER_44_133
*1252 FILLER_44_139
*1253 FILLER_44_141
*1254 FILLER_44_15
*1255 FILLER_44_153
*1256 FILLER_44_165
*1257 FILLER_44_177
*1258 FILLER_44_189
*1259 FILLER_44_195
*1260 FILLER_44_197
*1261 FILLER_44_209
*1262 FILLER_44_221
*1263 FILLER_44_233
*1264 FILLER_44_245
*1265 FILLER_44_251
*1266 FILLER_44_253
*1267 FILLER_44_265
*1268 FILLER_44_27
*1269 FILLER_44_277
*1270 FILLER_44_289
*1271 FILLER_44_29
*1272 FILLER_44_297
*1273 FILLER_44_3
*1274 FILLER_44_41
*1275 FILLER_44_53
*1276 FILLER_44_65
*1277 FILLER_44_77
*1278 FILLER_44_83
*1279 FILLER_44_85
*1280 FILLER_44_97
*1281 FILLER_45_105
*1282 FILLER_45_111
*1283 FILLER_45_113
*1284 FILLER_45_125
*1285 FILLER_45_137
*1286 FILLER_45_149
*1287 FILLER_45_15
*1288 FILLER_45_161
*1289 FILLER_45_167
*1290 FILLER_45_169
*1291 FILLER_45_181
*1292 FILLER_45_193
*1293 FILLER_45_205
*1294 FILLER_45_217
*1295 FILLER_45_223
*1296 FILLER_45_225
*1297 FILLER_45_237
*1298 FILLER_45_249
*1299 FILLER_45_261
*1300 FILLER_45_27
*1301 FILLER_45_273
*1302 FILLER_45_279
*1303 FILLER_45_281
*1304 FILLER_45_293
*1305 FILLER_45_3
*1306 FILLER_45_39
*1307 FILLER_45_51
*1308 FILLER_45_55
*1309 FILLER_45_57
*1310 FILLER_45_69
*1311 FILLER_45_81
*1312 FILLER_45_93
*1313 FILLER_46_109
*1314 FILLER_46_121
*1315 FILLER_46_133
*1316 FILLER_46_139
*1317 FILLER_46_141
*1318 FILLER_46_15
*1319 FILLER_46_153
*1320 FILLER_46_165
*1321 FILLER_46_177
*1322 FILLER_46_189
*1323 FILLER_46_195
*1324 FILLER_46_197
*1325 FILLER_46_209
*1326 FILLER_46_221
*1327 FILLER_46_233
*1328 FILLER_46_245
*1329 FILLER_46_251
*1330 FILLER_46_253
*1331 FILLER_46_265
*1332 FILLER_46_27
*1333 FILLER_46_277
*1334 FILLER_46_289
*1335 FILLER_46_29
*1336 FILLER_46_297
*1337 FILLER_46_3
*1338 FILLER_46_41
*1339 FILLER_46_53
*1340 FILLER_46_65
*1341 FILLER_46_77
*1342 FILLER_46_83
*1343 FILLER_46_85
*1344 FILLER_46_97
*1345 FILLER_47_105
*1346 FILLER_47_111
*1347 FILLER_47_113
*1348 FILLER_47_125
*1349 FILLER_47_137
*1350 FILLER_47_149
*1351 FILLER_47_15
*1352 FILLER_47_161
*1353 FILLER_47_167
*1354 FILLER_47_169
*1355 FILLER_47_181
*1356 FILLER_47_193
*1357 FILLER_47_205
*1358 FILLER_47_217
*1359 FILLER_47_223
*1360 FILLER_47_225
*1361 FILLER_47_237
*1362 FILLER_47_249
*1363 FILLER_47_261
*1364 FILLER_47_27
*1365 FILLER_47_273
*1366 FILLER_47_279
*1367 FILLER_47_281
*1368 FILLER_47_293
*1369 FILLER_47_3
*1370 FILLER_47_39
*1371 FILLER_47_51
*1372 FILLER_47_55
*1373 FILLER_47_57
*1374 FILLER_47_69
*1375 FILLER_47_81
*1376 FILLER_47_93
*1377 FILLER_48_109
*1378 FILLER_48_121
*1379 FILLER_48_133
*1380 FILLER_48_139
*1381 FILLER_48_141
*1382 FILLER_48_15
*1383 FILLER_48_153
*1384 FILLER_48_165
*1385 FILLER_48_177
*1386 FILLER_48_189
*1387 FILLER_48_195
*1388 FILLER_48_197
*1389 FILLER_48_209
*1390 FILLER_48_221
*1391 FILLER_48_233
*1392 FILLER_48_245
*1393 FILLER_48_251
*1394 FILLER_48_253
*1395 FILLER_48_265
*1396 FILLER_48_27
*1397 FILLER_48_277
*1398 FILLER_48_289
*1399 FILLER_48_29
*1400 FILLER_48_297
*1401 FILLER_48_3
*1402 FILLER_48_41
*1403 FILLER_48_53
*1404 FILLER_48_65
*1405 FILLER_48_77
*1406 FILLER_48_83
*1407 FILLER_48_85
*1408 FILLER_48_97
*1409 FILLER_49_105
*1410 FILLER_49_111
*1411 FILLER_49_113
*1412 FILLER_49_125
*1413 FILLER_49_137
*1414 FILLER_49_149
*1415 FILLER_49_15
*1416 FILLER_49_161
*1417 FILLER_49_167
*1418 FILLER_49_169
*1419 FILLER_49_181
*1420 FILLER_49_193
*1421 FILLER_49_205
*1422 FILLER_49_217
*1423 FILLER_49_223
*1424 FILLER_49_225
*1425 FILLER_49_237
*1426 FILLER_49_249
*1427 FILLER_49_261
*1428 FILLER_49_27
*1429 FILLER_49_273
*1430 FILLER_49_279
*1431 FILLER_49_281
*1432 FILLER_49_293
*1433 FILLER_49_3
*1434 FILLER_49_39
*1435 FILLER_49_51
*1436 FILLER_49_55
*1437 FILLER_49_57
*1438 FILLER_49_69
*1439 FILLER_49_81
*1440 FILLER_49_93
*1441 FILLER_4_109
*1442 FILLER_4_121
*1443 FILLER_4_133
*1444 FILLER_4_139
*1445 FILLER_4_141
*1446 FILLER_4_153
*1447 FILLER_4_165
*1448 FILLER_4_177
*1449 FILLER_4_189
*1450 FILLER_4_195
*1451 FILLER_4_197
*1452 FILLER_4_209
*1453 FILLER_4_21
*1454 FILLER_4_221
*1455 FILLER_4_233
*1456 FILLER_4_245
*1457 FILLER_4_251
*1458 FILLER_4_253
*1459 FILLER_4_265
*1460 FILLER_4_27
*1461 FILLER_4_277
*1462 FILLER_4_289
*1463 FILLER_4_29
*1464 FILLER_4_297
*1465 FILLER_4_3
*1466 FILLER_4_51
*1467 FILLER_4_63
*1468 FILLER_4_75
*1469 FILLER_4_83
*1470 FILLER_4_85
*1471 FILLER_4_9
*1472 FILLER_4_97
*1473 FILLER_50_109
*1474 FILLER_50_121
*1475 FILLER_50_133
*1476 FILLER_50_139
*1477 FILLER_50_141
*1478 FILLER_50_15
*1479 FILLER_50_153
*1480 FILLER_50_165
*1481 FILLER_50_177
*1482 FILLER_50_189
*1483 FILLER_50_195
*1484 FILLER_50_197
*1485 FILLER_50_209
*1486 FILLER_50_221
*1487 FILLER_50_233
*1488 FILLER_50_245
*1489 FILLER_50_251
*1490 FILLER_50_253
*1491 FILLER_50_265
*1492 FILLER_50_27
*1493 FILLER_50_277
*1494 FILLER_50_289
*1495 FILLER_50_29
*1496 FILLER_50_297
*1497 FILLER_50_3
*1498 FILLER_50_41
*1499 FILLER_50_53
*1500 FILLER_50_65
*1501 FILLER_50_77
*1502 FILLER_50_83
*1503 FILLER_50_85
*1504 FILLER_50_97
*1505 FILLER_51_105
*1506 FILLER_51_111
*1507 FILLER_51_113
*1508 FILLER_51_125
*1509 FILLER_51_137
*1510 FILLER_51_149
*1511 FILLER_51_15
*1512 FILLER_51_161
*1513 FILLER_51_167
*1514 FILLER_51_169
*1515 FILLER_51_181
*1516 FILLER_51_193
*1517 FILLER_51_205
*1518 FILLER_51_217
*1519 FILLER_51_223
*1520 FILLER_51_225
*1521 FILLER_51_237
*1522 FILLER_51_249
*1523 FILLER_51_261
*1524 FILLER_51_27
*1525 FILLER_51_273
*1526 FILLER_51_279
*1527 FILLER_51_281
*1528 FILLER_51_293
*1529 FILLER_51_3
*1530 FILLER_51_39
*1531 FILLER_51_51
*1532 FILLER_51_55
*1533 FILLER_51_57
*1534 FILLER_51_69
*1535 FILLER_51_81
*1536 FILLER_51_93
*1537 FILLER_52_109
*1538 FILLER_52_121
*1539 FILLER_52_133
*1540 FILLER_52_139
*1541 FILLER_52_141
*1542 FILLER_52_15
*1543 FILLER_52_153
*1544 FILLER_52_165
*1545 FILLER_52_177
*1546 FILLER_52_189
*1547 FILLER_52_195
*1548 FILLER_52_197
*1549 FILLER_52_209
*1550 FILLER_52_221
*1551 FILLER_52_233
*1552 FILLER_52_245
*1553 FILLER_52_251
*1554 FILLER_52_253
*1555 FILLER_52_265
*1556 FILLER_52_27
*1557 FILLER_52_277
*1558 FILLER_52_289
*1559 FILLER_52_29
*1560 FILLER_52_297
*1561 FILLER_52_3
*1562 FILLER_52_41
*1563 FILLER_52_53
*1564 FILLER_52_65
*1565 FILLER_52_77
*1566 FILLER_52_83
*1567 FILLER_52_85
*1568 FILLER_52_97
*1569 FILLER_53_105
*1570 FILLER_53_111
*1571 FILLER_53_113
*1572 FILLER_53_125
*1573 FILLER_53_137
*1574 FILLER_53_149
*1575 FILLER_53_15
*1576 FILLER_53_161
*1577 FILLER_53_167
*1578 FILLER_53_169
*1579 FILLER_53_181
*1580 FILLER_53_193
*1581 FILLER_53_205
*1582 FILLER_53_217
*1583 FILLER_53_223
*1584 FILLER_53_225
*1585 FILLER_53_237
*1586 FILLER_53_249
*1587 FILLER_53_261
*1588 FILLER_53_27
*1589 FILLER_53_273