*SPEF "ieee 1481-1999"
*DESIGN "gatecat_fpga_top"
*DATE "11:11:11 Fri 11 11, 1111"
*VENDOR "OpenRCX"
*PROGRAM "Parallel Extraction"
*VERSION "1.0"
*DESIGN_FLOW "NAME_SCOPE LOCAL" "PIN_CAP NONE"
*DIVIDER /
*DELIMITER :
*BUS_DELIMITER []
*T_UNIT 1 NS
*C_UNIT 1 PF
*R_UNIT 1 OHM
*L_UNIT 1 HENRY

*NAME_MAP
*1 io_in[0]
*2 io_in[1]
*3 io_in[2]
*4 io_in[3]
*5 io_in[4]
*6 io_in[5]
*7 io_in[6]
*8 io_in[7]
*9 io_out[0]
*10 io_out[1]
*11 io_out[2]
*12 io_out[3]
*13 io_out[4]
*14 io_out[5]
*15 io_out[6]
*16 io_out[7]
*19 _00_
*20 _01_
*21 _02_
*22 _03_
*23 _04_
*24 _05_
*25 _06_
*26 _07_
*27 _08_
*28 _09_
*29 _10_
*30 _11_
*31 _12_
*32 _13_
*33 _14_
*34 _15_
*35 _16_
*36 _17_
*37 _18_
*38 _19_
*39 _20_
*40 _21_
*41 _22_
*42 _23_
*43 _24_
*44 _25_
*45 _26_
*46 _27_
*47 _28_
*48 cfg_datain
*49 cfg_frameinc
*50 cfg_framestrb
*51 clknet_0_io_in[0]
*52 clknet_2_0__leaf_io_in[0]
*53 clknet_2_1__leaf_io_in[0]
*54 clknet_2_2__leaf_io_in[0]
*55 clknet_2_3__leaf_io_in[0]
*56 frame_ctr\[0\]
*57 frame_ctr\[1\]
*58 frame_ctr\[2\]
*59 frame_ctr\[3\]
*60 gated_strobe
*61 net1
*62 net10
*63 net11
*64 net12
*65 net13
*66 net14
*67 net15
*68 net16
*69 net17
*70 net18
*71 net19
*72 net2
*73 net20
*74 net21
*75 net22
*76 net23
*77 net24
*78 net25
*79 net26
*80 net27
*81 net28
*82 net29
*83 net3
*84 net30
*85 net31
*86 net32
*87 net33
*88 net34
*89 net35
*90 net36
*91 net37
*92 net38
*93 net39
*94 net4
*95 net40
*96 net41
*97 net42
*98 net43
*99 net44
*100 net45
*101 net46
*102 net47
*103 net48
*104 net49
*105 net5
*106 net50
*107 net51
*108 net52
*109 net53
*110 net54
*111 net55
*112 net56
*113 net57
*114 net6
*115 net7
*116 net8
*117 net9
*118 y_c\[0\]\.x_c\[0\]\.lc_i\.B
*119 y_c\[0\]\.x_c\[0\]\.lc_i\.L
*120 y_c\[0\]\.x_c\[0\]\.lc_i\.Q
*121 y_c\[0\]\.x_c\[0\]\.lc_i\.R
*122 y_c\[0\]\.x_c\[0\]\.lc_i\.T
*123 y_c\[0\]\.x_c\[0\]\.lc_i\.cfg\[0\]
*124 y_c\[0\]\.x_c\[0\]\.lc_i\.cfg\[1\]
*125 y_c\[0\]\.x_c\[0\]\.lc_i\.cfg\[2\]
*126 y_c\[0\]\.x_c\[0\]\.lc_i\.cfg\[3\]
*127 y_c\[0\]\.x_c\[0\]\.lc_i\.cfg\[4\]
*128 y_c\[0\]\.x_c\[0\]\.lc_i\.cfg\[5\]
*129 y_c\[0\]\.x_c\[0\]\.lc_i\.cfg\[6\]
*130 y_c\[0\]\.x_c\[0\]\.lc_i\.cfg\[7\]
*131 y_c\[0\]\.x_c\[0\]\.lc_i\.cfg_data\[0\]
*132 y_c\[0\]\.x_c\[0\]\.lc_i\.cfg_data\[1\]
*133 y_c\[0\]\.x_c\[0\]\.lc_i\.cfg_data\[2\]
*134 y_c\[0\]\.x_c\[0\]\.lc_i\.cfg_data\[3\]
*135 y_c\[0\]\.x_c\[0\]\.lc_i\.cfg_mode
*136 y_c\[0\]\.x_c\[0\]\.lc_i\.cfg_strb\[0\]
*137 y_c\[0\]\.x_c\[0\]\.lc_i\.cfg_strb\[1\]
*138 y_c\[0\]\.x_c\[0\]\.lc_i\.dff\.dffo_n
*139 y_c\[0\]\.x_c\[0\]\.lc_i\.i0
*140 y_c\[0\]\.x_c\[0\]\.lc_i\.i0a
*141 y_c\[0\]\.x_c\[0\]\.lc_i\.i0b
*142 y_c\[0\]\.x_c\[0\]\.lc_i\.i1
*143 y_c\[0\]\.x_c\[0\]\.lc_i\.i1a
*144 y_c\[0\]\.x_c\[0\]\.lc_i\.i1b
*145 y_c\[0\]\.x_c\[0\]\.lc_i\.muxo_n
*146 y_c\[0\]\.x_c\[0\]\.lc_i\.s0
*147 y_c\[0\]\.x_c\[0\]\.lc_i\.s0a
*148 y_c\[0\]\.x_c\[0\]\.lc_i\.s0b
*149 y_c\[0\]\.x_c\[0\]\.lc_i\.s0s
*150 y_c\[0\]\.x_c\[1\]\.lc_i\.B
*151 y_c\[0\]\.x_c\[1\]\.lc_i\.R
*152 y_c\[0\]\.x_c\[1\]\.lc_i\.cfg\[0\]
*153 y_c\[0\]\.x_c\[1\]\.lc_i\.cfg\[1\]
*154 y_c\[0\]\.x_c\[1\]\.lc_i\.cfg\[2\]
*155 y_c\[0\]\.x_c\[1\]\.lc_i\.cfg\[3\]
*156 y_c\[0\]\.x_c\[1\]\.lc_i\.cfg\[4\]
*157 y_c\[0\]\.x_c\[1\]\.lc_i\.cfg\[5\]
*158 y_c\[0\]\.x_c\[1\]\.lc_i\.cfg\[6\]
*159 y_c\[0\]\.x_c\[1\]\.lc_i\.cfg\[7\]
*160 y_c\[0\]\.x_c\[1\]\.lc_i\.cfg_data\[0\]
*161 y_c\[0\]\.x_c\[1\]\.lc_i\.cfg_data\[1\]
*162 y_c\[0\]\.x_c\[1\]\.lc_i\.cfg_data\[2\]
*163 y_c\[0\]\.x_c\[1\]\.lc_i\.cfg_data\[3\]
*164 y_c\[0\]\.x_c\[1\]\.lc_i\.dff\.dffo_n
*165 y_c\[0\]\.x_c\[1\]\.lc_i\.i0
*166 y_c\[0\]\.x_c\[1\]\.lc_i\.i0a
*167 y_c\[0\]\.x_c\[1\]\.lc_i\.i0b
*168 y_c\[0\]\.x_c\[1\]\.lc_i\.i1
*169 y_c\[0\]\.x_c\[1\]\.lc_i\.i1a
*170 y_c\[0\]\.x_c\[1\]\.lc_i\.i1b
*171 y_c\[0\]\.x_c\[1\]\.lc_i\.muxo_n
*172 y_c\[0\]\.x_c\[1\]\.lc_i\.s0
*173 y_c\[0\]\.x_c\[1\]\.lc_i\.s0a
*174 y_c\[0\]\.x_c\[1\]\.lc_i\.s0b
*175 y_c\[0\]\.x_c\[1\]\.lc_i\.s0s
*176 y_c\[0\]\.x_c\[2\]\.lc_i\.B
*177 y_c\[0\]\.x_c\[2\]\.lc_i\.R
*178 y_c\[0\]\.x_c\[2\]\.lc_i\.T
*179 y_c\[0\]\.x_c\[2\]\.lc_i\.cfg\[0\]
*180 y_c\[0\]\.x_c\[2\]\.lc_i\.cfg\[1\]
*181 y_c\[0\]\.x_c\[2\]\.lc_i\.cfg\[2\]
*182 y_c\[0\]\.x_c\[2\]\.lc_i\.cfg\[3\]
*183 y_c\[0\]\.x_c\[2\]\.lc_i\.cfg\[4\]
*184 y_c\[0\]\.x_c\[2\]\.lc_i\.cfg\[5\]
*185 y_c\[0\]\.x_c\[2\]\.lc_i\.cfg\[6\]
*186 y_c\[0\]\.x_c\[2\]\.lc_i\.cfg\[7\]
*187 y_c\[0\]\.x_c\[2\]\.lc_i\.cfg_data\[0\]
*188 y_c\[0\]\.x_c\[2\]\.lc_i\.cfg_data\[1\]
*189 y_c\[0\]\.x_c\[2\]\.lc_i\.cfg_data\[2\]
*190 y_c\[0\]\.x_c\[2\]\.lc_i\.cfg_data\[3\]
*191 y_c\[0\]\.x_c\[2\]\.lc_i\.dff\.dffo_n
*192 y_c\[0\]\.x_c\[2\]\.lc_i\.i0
*193 y_c\[0\]\.x_c\[2\]\.lc_i\.i0a
*194 y_c\[0\]\.x_c\[2\]\.lc_i\.i0b
*195 y_c\[0\]\.x_c\[2\]\.lc_i\.i1
*196 y_c\[0\]\.x_c\[2\]\.lc_i\.i1a
*197 y_c\[0\]\.x_c\[2\]\.lc_i\.i1b
*198 y_c\[0\]\.x_c\[2\]\.lc_i\.muxo_n
*199 y_c\[0\]\.x_c\[2\]\.lc_i\.s0
*200 y_c\[0\]\.x_c\[2\]\.lc_i\.s0a
*201 y_c\[0\]\.x_c\[2\]\.lc_i\.s0b
*202 y_c\[0\]\.x_c\[2\]\.lc_i\.s0s
*203 y_c\[0\]\.x_c\[3\]\.lc_i\.B
*204 y_c\[0\]\.x_c\[3\]\.lc_i\.R
*205 y_c\[0\]\.x_c\[3\]\.lc_i\.T
*206 y_c\[0\]\.x_c\[3\]\.lc_i\.cfg\[0\]
*207 y_c\[0\]\.x_c\[3\]\.lc_i\.cfg\[1\]
*208 y_c\[0\]\.x_c\[3\]\.lc_i\.cfg\[2\]
*209 y_c\[0\]\.x_c\[3\]\.lc_i\.cfg\[3\]
*210 y_c\[0\]\.x_c\[3\]\.lc_i\.cfg\[4\]
*211 y_c\[0\]\.x_c\[3\]\.lc_i\.cfg\[5\]
*212 y_c\[0\]\.x_c\[3\]\.lc_i\.cfg\[6\]
*213 y_c\[0\]\.x_c\[3\]\.lc_i\.cfg\[7\]
*214 y_c\[0\]\.x_c\[3\]\.lc_i\.cfg_data\[0\]
*215 y_c\[0\]\.x_c\[3\]\.lc_i\.cfg_data\[1\]
*216 y_c\[0\]\.x_c\[3\]\.lc_i\.cfg_data\[2\]
*217 y_c\[0\]\.x_c\[3\]\.lc_i\.cfg_data\[3\]
*218 y_c\[0\]\.x_c\[3\]\.lc_i\.dff\.dffo_n
*219 y_c\[0\]\.x_c\[3\]\.lc_i\.i0
*220 y_c\[0\]\.x_c\[3\]\.lc_i\.i0a
*221 y_c\[0\]\.x_c\[3\]\.lc_i\.i0b
*222 y_c\[0\]\.x_c\[3\]\.lc_i\.i1
*223 y_c\[0\]\.x_c\[3\]\.lc_i\.i1a
*224 y_c\[0\]\.x_c\[3\]\.lc_i\.i1b
*225 y_c\[0\]\.x_c\[3\]\.lc_i\.muxo_n
*226 y_c\[0\]\.x_c\[3\]\.lc_i\.s0
*227 y_c\[0\]\.x_c\[3\]\.lc_i\.s0a
*228 y_c\[0\]\.x_c\[3\]\.lc_i\.s0b
*229 y_c\[0\]\.x_c\[3\]\.lc_i\.s0s
*230 y_c\[0\]\.x_c\[4\]\.lc_i\.B
*231 y_c\[0\]\.x_c\[4\]\.lc_i\.T
*232 y_c\[0\]\.x_c\[4\]\.lc_i\.cfg\[0\]
*233 y_c\[0\]\.x_c\[4\]\.lc_i\.cfg\[1\]
*234 y_c\[0\]\.x_c\[4\]\.lc_i\.cfg\[2\]
*235 y_c\[0\]\.x_c\[4\]\.lc_i\.cfg\[3\]
*236 y_c\[0\]\.x_c\[4\]\.lc_i\.cfg\[4\]
*237 y_c\[0\]\.x_c\[4\]\.lc_i\.cfg\[5\]
*238 y_c\[0\]\.x_c\[4\]\.lc_i\.cfg\[6\]
*239 y_c\[0\]\.x_c\[4\]\.lc_i\.cfg\[7\]
*240 y_c\[0\]\.x_c\[4\]\.lc_i\.cfg_data\[0\]
*241 y_c\[0\]\.x_c\[4\]\.lc_i\.cfg_data\[1\]
*242 y_c\[0\]\.x_c\[4\]\.lc_i\.cfg_data\[2\]
*243 y_c\[0\]\.x_c\[4\]\.lc_i\.cfg_data\[3\]
*244 y_c\[0\]\.x_c\[4\]\.lc_i\.dff\.dffo_n
*245 y_c\[0\]\.x_c\[4\]\.lc_i\.i0
*246 y_c\[0\]\.x_c\[4\]\.lc_i\.i0a
*247 y_c\[0\]\.x_c\[4\]\.lc_i\.i0b
*248 y_c\[0\]\.x_c\[4\]\.lc_i\.i1
*249 y_c\[0\]\.x_c\[4\]\.lc_i\.i1a
*250 y_c\[0\]\.x_c\[4\]\.lc_i\.i1b
*251 y_c\[0\]\.x_c\[4\]\.lc_i\.muxo_n
*252 y_c\[0\]\.x_c\[4\]\.lc_i\.s0
*253 y_c\[0\]\.x_c\[4\]\.lc_i\.s0a
*254 y_c\[0\]\.x_c\[4\]\.lc_i\.s0b
*255 y_c\[0\]\.x_c\[4\]\.lc_i\.s0s
*256 y_c\[1\]\.x_c\[0\]\.lc_i\.B
*257 y_c\[1\]\.x_c\[0\]\.lc_i\.cfg\[0\]
*258 y_c\[1\]\.x_c\[0\]\.lc_i\.cfg\[1\]
*259 y_c\[1\]\.x_c\[0\]\.lc_i\.cfg\[2\]
*260 y_c\[1\]\.x_c\[0\]\.lc_i\.cfg\[3\]
*261 y_c\[1\]\.x_c\[0\]\.lc_i\.cfg\[4\]
*262 y_c\[1\]\.x_c\[0\]\.lc_i\.cfg\[5\]
*263 y_c\[1\]\.x_c\[0\]\.lc_i\.cfg\[6\]
*264 y_c\[1\]\.x_c\[0\]\.lc_i\.cfg\[7\]
*265 y_c\[1\]\.x_c\[0\]\.lc_i\.cfg_strb\[0\]
*266 y_c\[1\]\.x_c\[0\]\.lc_i\.cfg_strb\[1\]
*267 y_c\[1\]\.x_c\[0\]\.lc_i\.dff\.dffo_n
*268 y_c\[1\]\.x_c\[0\]\.lc_i\.i0
*269 y_c\[1\]\.x_c\[0\]\.lc_i\.i0a
*270 y_c\[1\]\.x_c\[0\]\.lc_i\.i0b
*271 y_c\[1\]\.x_c\[0\]\.lc_i\.i1
*272 y_c\[1\]\.x_c\[0\]\.lc_i\.i1a
*273 y_c\[1\]\.x_c\[0\]\.lc_i\.i1b
*274 y_c\[1\]\.x_c\[0\]\.lc_i\.muxo_n
*275 y_c\[1\]\.x_c\[0\]\.lc_i\.s0
*276 y_c\[1\]\.x_c\[0\]\.lc_i\.s0a
*277 y_c\[1\]\.x_c\[0\]\.lc_i\.s0b
*278 y_c\[1\]\.x_c\[0\]\.lc_i\.s0s
*279 y_c\[1\]\.x_c\[1\]\.lc_i\.B
*280 y_c\[1\]\.x_c\[1\]\.lc_i\.cfg\[0\]
*281 y_c\[1\]\.x_c\[1\]\.lc_i\.cfg\[1\]
*282 y_c\[1\]\.x_c\[1\]\.lc_i\.cfg\[2\]
*283 y_c\[1\]\.x_c\[1\]\.lc_i\.cfg\[3\]
*284 y_c\[1\]\.x_c\[1\]\.lc_i\.cfg\[4\]
*285 y_c\[1\]\.x_c\[1\]\.lc_i\.cfg\[5\]
*286 y_c\[1\]\.x_c\[1\]\.lc_i\.cfg\[6\]
*287 y_c\[1\]\.x_c\[1\]\.lc_i\.cfg\[7\]
*288 y_c\[1\]\.x_c\[1\]\.lc_i\.dff\.dffo_n
*289 y_c\[1\]\.x_c\[1\]\.lc_i\.i0
*290 y_c\[1\]\.x_c\[1\]\.lc_i\.i0a
*291 y_c\[1\]\.x_c\[1\]\.lc_i\.i0b
*292 y_c\[1\]\.x_c\[1\]\.lc_i\.i1
*293 y_c\[1\]\.x_c\[1\]\.lc_i\.i1a
*294 y_c\[1\]\.x_c\[1\]\.lc_i\.i1b
*295 y_c\[1\]\.x_c\[1\]\.lc_i\.muxo_n
*296 y_c\[1\]\.x_c\[1\]\.lc_i\.s0
*297 y_c\[1\]\.x_c\[1\]\.lc_i\.s0a
*298 y_c\[1\]\.x_c\[1\]\.lc_i\.s0b
*299 y_c\[1\]\.x_c\[1\]\.lc_i\.s0s
*300 y_c\[1\]\.x_c\[2\]\.lc_i\.B
*301 y_c\[1\]\.x_c\[2\]\.lc_i\.cfg\[0\]
*302 y_c\[1\]\.x_c\[2\]\.lc_i\.cfg\[1\]
*303 y_c\[1\]\.x_c\[2\]\.lc_i\.cfg\[2\]
*304 y_c\[1\]\.x_c\[2\]\.lc_i\.cfg\[3\]
*305 y_c\[1\]\.x_c\[2\]\.lc_i\.cfg\[4\]
*306 y_c\[1\]\.x_c\[2\]\.lc_i\.cfg\[5\]
*307 y_c\[1\]\.x_c\[2\]\.lc_i\.cfg\[6\]
*308 y_c\[1\]\.x_c\[2\]\.lc_i\.cfg\[7\]
*309 y_c\[1\]\.x_c\[2\]\.lc_i\.dff\.dffo_n
*310 y_c\[1\]\.x_c\[2\]\.lc_i\.i0
*311 y_c\[1\]\.x_c\[2\]\.lc_i\.i0a
*312 y_c\[1\]\.x_c\[2\]\.lc_i\.i0b
*313 y_c\[1\]\.x_c\[2\]\.lc_i\.i1
*314 y_c\[1\]\.x_c\[2\]\.lc_i\.i1a
*315 y_c\[1\]\.x_c\[2\]\.lc_i\.i1b
*316 y_c\[1\]\.x_c\[2\]\.lc_i\.muxo_n
*317 y_c\[1\]\.x_c\[2\]\.lc_i\.s0
*318 y_c\[1\]\.x_c\[2\]\.lc_i\.s0a
*319 y_c\[1\]\.x_c\[2\]\.lc_i\.s0b
*320 y_c\[1\]\.x_c\[2\]\.lc_i\.s0s
*321 y_c\[1\]\.x_c\[3\]\.lc_i\.B
*322 y_c\[1\]\.x_c\[3\]\.lc_i\.cfg\[0\]
*323 y_c\[1\]\.x_c\[3\]\.lc_i\.cfg\[1\]
*324 y_c\[1\]\.x_c\[3\]\.lc_i\.cfg\[2\]
*325 y_c\[1\]\.x_c\[3\]\.lc_i\.cfg\[3\]
*326 y_c\[1\]\.x_c\[3\]\.lc_i\.cfg\[4\]
*327 y_c\[1\]\.x_c\[3\]\.lc_i\.cfg\[5\]
*328 y_c\[1\]\.x_c\[3\]\.lc_i\.cfg\[6\]
*329 y_c\[1\]\.x_c\[3\]\.lc_i\.cfg\[7\]
*330 y_c\[1\]\.x_c\[3\]\.lc_i\.dff\.dffo_n
*331 y_c\[1\]\.x_c\[3\]\.lc_i\.i0
*332 y_c\[1\]\.x_c\[3\]\.lc_i\.i0a
*333 y_c\[1\]\.x_c\[3\]\.lc_i\.i0b
*334 y_c\[1\]\.x_c\[3\]\.lc_i\.i1
*335 y_c\[1\]\.x_c\[3\]\.lc_i\.i1a
*336 y_c\[1\]\.x_c\[3\]\.lc_i\.i1b
*337 y_c\[1\]\.x_c\[3\]\.lc_i\.muxo_n
*338 y_c\[1\]\.x_c\[3\]\.lc_i\.s0
*339 y_c\[1\]\.x_c\[3\]\.lc_i\.s0a
*340 y_c\[1\]\.x_c\[3\]\.lc_i\.s0b
*341 y_c\[1\]\.x_c\[3\]\.lc_i\.s0s
*342 y_c\[1\]\.x_c\[4\]\.lc_i\.B
*343 y_c\[1\]\.x_c\[4\]\.lc_i\.cfg\[0\]
*344 y_c\[1\]\.x_c\[4\]\.lc_i\.cfg\[1\]
*345 y_c\[1\]\.x_c\[4\]\.lc_i\.cfg\[2\]
*346 y_c\[1\]\.x_c\[4\]\.lc_i\.cfg\[3\]
*347 y_c\[1\]\.x_c\[4\]\.lc_i\.cfg\[4\]
*348 y_c\[1\]\.x_c\[4\]\.lc_i\.cfg\[5\]
*349 y_c\[1\]\.x_c\[4\]\.lc_i\.cfg\[6\]
*350 y_c\[1\]\.x_c\[4\]\.lc_i\.cfg\[7\]
*351 y_c\[1\]\.x_c\[4\]\.lc_i\.dff\.dffo_n
*352 y_c\[1\]\.x_c\[4\]\.lc_i\.i0
*353 y_c\[1\]\.x_c\[4\]\.lc_i\.i0a
*354 y_c\[1\]\.x_c\[4\]\.lc_i\.i0b
*355 y_c\[1\]\.x_c\[4\]\.lc_i\.i1
*356 y_c\[1\]\.x_c\[4\]\.lc_i\.i1a
*357 y_c\[1\]\.x_c\[4\]\.lc_i\.i1b
*358 y_c\[1\]\.x_c\[4\]\.lc_i\.muxo_n
*359 y_c\[1\]\.x_c\[4\]\.lc_i\.s0
*360 y_c\[1\]\.x_c\[4\]\.lc_i\.s0a
*361 y_c\[1\]\.x_c\[4\]\.lc_i\.s0b
*362 y_c\[1\]\.x_c\[4\]\.lc_i\.s0s
*363 y_c\[2\]\.x_c\[0\]\.lc_i\.B
*364 y_c\[2\]\.x_c\[0\]\.lc_i\.cfg\[0\]
*365 y_c\[2\]\.x_c\[0\]\.lc_i\.cfg\[1\]
*366 y_c\[2\]\.x_c\[0\]\.lc_i\.cfg\[2\]
*367 y_c\[2\]\.x_c\[0\]\.lc_i\.cfg\[3\]
*368 y_c\[2\]\.x_c\[0\]\.lc_i\.cfg\[4\]
*369 y_c\[2\]\.x_c\[0\]\.lc_i\.cfg\[5\]
*370 y_c\[2\]\.x_c\[0\]\.lc_i\.cfg\[6\]
*371 y_c\[2\]\.x_c\[0\]\.lc_i\.cfg\[7\]
*372 y_c\[2\]\.x_c\[0\]\.lc_i\.cfg_strb\[0\]
*373 y_c\[2\]\.x_c\[0\]\.lc_i\.cfg_strb\[1\]
*374 y_c\[2\]\.x_c\[0\]\.lc_i\.dff\.dffo_n
*375 y_c\[2\]\.x_c\[0\]\.lc_i\.i0
*376 y_c\[2\]\.x_c\[0\]\.lc_i\.i0a
*377 y_c\[2\]\.x_c\[0\]\.lc_i\.i0b
*378 y_c\[2\]\.x_c\[0\]\.lc_i\.i1
*379 y_c\[2\]\.x_c\[0\]\.lc_i\.i1a
*380 y_c\[2\]\.x_c\[0\]\.lc_i\.i1b
*381 y_c\[2\]\.x_c\[0\]\.lc_i\.muxo_n
*382 y_c\[2\]\.x_c\[0\]\.lc_i\.s0
*383 y_c\[2\]\.x_c\[0\]\.lc_i\.s0a
*384 y_c\[2\]\.x_c\[0\]\.lc_i\.s0b
*385 y_c\[2\]\.x_c\[0\]\.lc_i\.s0s
*386 y_c\[2\]\.x_c\[1\]\.lc_i\.B
*387 y_c\[2\]\.x_c\[1\]\.lc_i\.cfg\[0\]
*388 y_c\[2\]\.x_c\[1\]\.lc_i\.cfg\[1\]
*389 y_c\[2\]\.x_c\[1\]\.lc_i\.cfg\[2\]
*390 y_c\[2\]\.x_c\[1\]\.lc_i\.cfg\[3\]
*391 y_c\[2\]\.x_c\[1\]\.lc_i\.cfg\[4\]
*392 y_c\[2\]\.x_c\[1\]\.lc_i\.cfg\[5\]
*393 y_c\[2\]\.x_c\[1\]\.lc_i\.cfg\[6\]
*394 y_c\[2\]\.x_c\[1\]\.lc_i\.cfg\[7\]
*395 y_c\[2\]\.x_c\[1\]\.lc_i\.dff\.dffo_n
*396 y_c\[2\]\.x_c\[1\]\.lc_i\.i0
*397 y_c\[2\]\.x_c\[1\]\.lc_i\.i0a
*398 y_c\[2\]\.x_c\[1\]\.lc_i\.i0b
*399 y_c\[2\]\.x_c\[1\]\.lc_i\.i1
*400 y_c\[2\]\.x_c\[1\]\.lc_i\.i1a
*401 y_c\[2\]\.x_c\[1\]\.lc_i\.i1b
*402 y_c\[2\]\.x_c\[1\]\.lc_i\.muxo_n
*403 y_c\[2\]\.x_c\[1\]\.lc_i\.s0
*404 y_c\[2\]\.x_c\[1\]\.lc_i\.s0a
*405 y_c\[2\]\.x_c\[1\]\.lc_i\.s0b
*406 y_c\[2\]\.x_c\[1\]\.lc_i\.s0s
*407 y_c\[2\]\.x_c\[2\]\.lc_i\.B
*408 y_c\[2\]\.x_c\[2\]\.lc_i\.cfg\[0\]
*409 y_c\[2\]\.x_c\[2\]\.lc_i\.cfg\[1\]
*410 y_c\[2\]\.x_c\[2\]\.lc_i\.cfg\[2\]
*411 y_c\[2\]\.x_c\[2\]\.lc_i\.cfg\[3\]
*412 y_c\[2\]\.x_c\[2\]\.lc_i\.cfg\[4\]
*413 y_c\[2\]\.x_c\[2\]\.lc_i\.cfg\[5\]
*414 y_c\[2\]\.x_c\[2\]\.lc_i\.cfg\[6\]
*415 y_c\[2\]\.x_c\[2\]\.lc_i\.cfg\[7\]
*416 y_c\[2\]\.x_c\[2\]\.lc_i\.dff\.dffo_n
*417 y_c\[2\]\.x_c\[2\]\.lc_i\.i0
*418 y_c\[2\]\.x_c\[2\]\.lc_i\.i0a
*419 y_c\[2\]\.x_c\[2\]\.lc_i\.i0b
*420 y_c\[2\]\.x_c\[2\]\.lc_i\.i1
*421 y_c\[2\]\.x_c\[2\]\.lc_i\.i1a
*422 y_c\[2\]\.x_c\[2\]\.lc_i\.i1b
*423 y_c\[2\]\.x_c\[2\]\.lc_i\.muxo_n
*424 y_c\[2\]\.x_c\[2\]\.lc_i\.s0
*425 y_c\[2\]\.x_c\[2\]\.lc_i\.s0a
*426 y_c\[2\]\.x_c\[2\]\.lc_i\.s0b
*427 y_c\[2\]\.x_c\[2\]\.lc_i\.s0s
*428 y_c\[2\]\.x_c\[3\]\.lc_i\.B
*429 y_c\[2\]\.x_c\[3\]\.lc_i\.cfg\[0\]
*430 y_c\[2\]\.x_c\[3\]\.lc_i\.cfg\[1\]
*431 y_c\[2\]\.x_c\[3\]\.lc_i\.cfg\[2\]
*432 y_c\[2\]\.x_c\[3\]\.lc_i\.cfg\[3\]
*433 y_c\[2\]\.x_c\[3\]\.lc_i\.cfg\[4\]
*434 y_c\[2\]\.x_c\[3\]\.lc_i\.cfg\[5\]
*435 y_c\[2\]\.x_c\[3\]\.lc_i\.cfg\[6\]
*436 y_c\[2\]\.x_c\[3\]\.lc_i\.cfg\[7\]
*437 y_c\[2\]\.x_c\[3\]\.lc_i\.dff\.dffo_n
*438 y_c\[2\]\.x_c\[3\]\.lc_i\.i0
*439 y_c\[2\]\.x_c\[3\]\.lc_i\.i0a
*440 y_c\[2\]\.x_c\[3\]\.lc_i\.i0b
*441 y_c\[2\]\.x_c\[3\]\.lc_i\.i1
*442 y_c\[2\]\.x_c\[3\]\.lc_i\.i1a
*443 y_c\[2\]\.x_c\[3\]\.lc_i\.i1b
*444 y_c\[2\]\.x_c\[3\]\.lc_i\.muxo_n
*445 y_c\[2\]\.x_c\[3\]\.lc_i\.s0
*446 y_c\[2\]\.x_c\[3\]\.lc_i\.s0a
*447 y_c\[2\]\.x_c\[3\]\.lc_i\.s0b
*448 y_c\[2\]\.x_c\[3\]\.lc_i\.s0s
*449 y_c\[2\]\.x_c\[4\]\.lc_i\.B
*450 y_c\[2\]\.x_c\[4\]\.lc_i\.cfg\[0\]
*451 y_c\[2\]\.x_c\[4\]\.lc_i\.cfg\[1\]
*452 y_c\[2\]\.x_c\[4\]\.lc_i\.cfg\[2\]
*453 y_c\[2\]\.x_c\[4\]\.lc_i\.cfg\[3\]
*454 y_c\[2\]\.x_c\[4\]\.lc_i\.cfg\[4\]
*455 y_c\[2\]\.x_c\[4\]\.lc_i\.cfg\[5\]
*456 y_c\[2\]\.x_c\[4\]\.lc_i\.cfg\[6\]
*457 y_c\[2\]\.x_c\[4\]\.lc_i\.cfg\[7\]
*458 y_c\[2\]\.x_c\[4\]\.lc_i\.dff\.dffo_n
*459 y_c\[2\]\.x_c\[4\]\.lc_i\.i0
*460 y_c\[2\]\.x_c\[4\]\.lc_i\.i0a
*461 y_c\[2\]\.x_c\[4\]\.lc_i\.i0b
*462 y_c\[2\]\.x_c\[4\]\.lc_i\.i1
*463 y_c\[2\]\.x_c\[4\]\.lc_i\.i1a
*464 y_c\[2\]\.x_c\[4\]\.lc_i\.i1b
*465 y_c\[2\]\.x_c\[4\]\.lc_i\.muxo_n
*466 y_c\[2\]\.x_c\[4\]\.lc_i\.s0
*467 y_c\[2\]\.x_c\[4\]\.lc_i\.s0a
*468 y_c\[2\]\.x_c\[4\]\.lc_i\.s0b
*469 y_c\[2\]\.x_c\[4\]\.lc_i\.s0s
*470 y_c\[3\]\.x_c\[0\]\.lc_i\.B
*471 y_c\[3\]\.x_c\[0\]\.lc_i\.cfg\[0\]
*472 y_c\[3\]\.x_c\[0\]\.lc_i\.cfg\[1\]
*473 y_c\[3\]\.x_c\[0\]\.lc_i\.cfg\[2\]
*474 y_c\[3\]\.x_c\[0\]\.lc_i\.cfg\[3\]
*475 y_c\[3\]\.x_c\[0\]\.lc_i\.cfg\[4\]
*476 y_c\[3\]\.x_c\[0\]\.lc_i\.cfg\[5\]
*477 y_c\[3\]\.x_c\[0\]\.lc_i\.cfg\[6\]
*478 y_c\[3\]\.x_c\[0\]\.lc_i\.cfg\[7\]
*479 y_c\[3\]\.x_c\[0\]\.lc_i\.cfg_strb\[0\]
*480 y_c\[3\]\.x_c\[0\]\.lc_i\.cfg_strb\[1\]
*481 y_c\[3\]\.x_c\[0\]\.lc_i\.dff\.dffo_n
*482 y_c\[3\]\.x_c\[0\]\.lc_i\.i0
*483 y_c\[3\]\.x_c\[0\]\.lc_i\.i0a
*484 y_c\[3\]\.x_c\[0\]\.lc_i\.i0b
*485 y_c\[3\]\.x_c\[0\]\.lc_i\.i1
*486 y_c\[3\]\.x_c\[0\]\.lc_i\.i1a
*487 y_c\[3\]\.x_c\[0\]\.lc_i\.i1b
*488 y_c\[3\]\.x_c\[0\]\.lc_i\.muxo_n
*489 y_c\[3\]\.x_c\[0\]\.lc_i\.s0
*490 y_c\[3\]\.x_c\[0\]\.lc_i\.s0a
*491 y_c\[3\]\.x_c\[0\]\.lc_i\.s0b
*492 y_c\[3\]\.x_c\[0\]\.lc_i\.s0s
*493 y_c\[3\]\.x_c\[1\]\.lc_i\.B
*494 y_c\[3\]\.x_c\[1\]\.lc_i\.cfg\[0\]
*495 y_c\[3\]\.x_c\[1\]\.lc_i\.cfg\[1\]
*496 y_c\[3\]\.x_c\[1\]\.lc_i\.cfg\[2\]
*497 y_c\[3\]\.x_c\[1\]\.lc_i\.cfg\[3\]
*498 y_c\[3\]\.x_c\[1\]\.lc_i\.cfg\[4\]
*499 y_c\[3\]\.x_c\[1\]\.lc_i\.cfg\[5\]
*500 y_c\[3\]\.x_c\[1\]\.lc_i\.cfg\[6\]
*501 y_c\[3\]\.x_c\[1\]\.lc_i\.cfg\[7\]
*502 y_c\[3\]\.x_c\[1\]\.lc_i\.dff\.dffo_n
*503 y_c\[3\]\.x_c\[1\]\.lc_i\.i0
*504 y_c\[3\]\.x_c\[1\]\.lc_i\.i0a
*505 y_c\[3\]\.x_c\[1\]\.lc_i\.i0b
*506 y_c\[3\]\.x_c\[1\]\.lc_i\.i1
*507 y_c\[3\]\.x_c\[1\]\.lc_i\.i1a
*508 y_c\[3\]\.x_c\[1\]\.lc_i\.i1b
*509 y_c\[3\]\.x_c\[1\]\.lc_i\.muxo_n
*510 y_c\[3\]\.x_c\[1\]\.lc_i\.s0
*511 y_c\[3\]\.x_c\[1\]\.lc_i\.s0a
*512 y_c\[3\]\.x_c\[1\]\.lc_i\.s0b
*513 y_c\[3\]\.x_c\[1\]\.lc_i\.s0s
*514 y_c\[3\]\.x_c\[2\]\.lc_i\.B
*515 y_c\[3\]\.x_c\[2\]\.lc_i\.cfg\[0\]
*516 y_c\[3\]\.x_c\[2\]\.lc_i\.cfg\[1\]
*517 y_c\[3\]\.x_c\[2\]\.lc_i\.cfg\[2\]
*518 y_c\[3\]\.x_c\[2\]\.lc_i\.cfg\[3\]
*519 y_c\[3\]\.x_c\[2\]\.lc_i\.cfg\[4\]
*520 y_c\[3\]\.x_c\[2\]\.lc_i\.cfg\[5\]
*521 y_c\[3\]\.x_c\[2\]\.lc_i\.cfg\[6\]
*522 y_c\[3\]\.x_c\[2\]\.lc_i\.cfg\[7\]
*523 y_c\[3\]\.x_c\[2\]\.lc_i\.dff\.dffo_n
*524 y_c\[3\]\.x_c\[2\]\.lc_i\.i0
*525 y_c\[3\]\.x_c\[2\]\.lc_i\.i0a
*526 y_c\[3\]\.x_c\[2\]\.lc_i\.i0b
*527 y_c\[3\]\.x_c\[2\]\.lc_i\.i1
*528 y_c\[3\]\.x_c\[2\]\.lc_i\.i1a
*529 y_c\[3\]\.x_c\[2\]\.lc_i\.i1b
*530 y_c\[3\]\.x_c\[2\]\.lc_i\.muxo_n
*531 y_c\[3\]\.x_c\[2\]\.lc_i\.s0
*532 y_c\[3\]\.x_c\[2\]\.lc_i\.s0a
*533 y_c\[3\]\.x_c\[2\]\.lc_i\.s0b
*534 y_c\[3\]\.x_c\[2\]\.lc_i\.s0s
*535 y_c\[3\]\.x_c\[3\]\.lc_i\.B
*536 y_c\[3\]\.x_c\[3\]\.lc_i\.cfg\[0\]
*537 y_c\[3\]\.x_c\[3\]\.lc_i\.cfg\[1\]
*538 y_c\[3\]\.x_c\[3\]\.lc_i\.cfg\[2\]
*539 y_c\[3\]\.x_c\[3\]\.lc_i\.cfg\[3\]
*540 y_c\[3\]\.x_c\[3\]\.lc_i\.cfg\[4\]
*541 y_c\[3\]\.x_c\[3\]\.lc_i\.cfg\[5\]
*542 y_c\[3\]\.x_c\[3\]\.lc_i\.cfg\[6\]
*543 y_c\[3\]\.x_c\[3\]\.lc_i\.cfg\[7\]
*544 y_c\[3\]\.x_c\[3\]\.lc_i\.dff\.dffo_n
*545 y_c\[3\]\.x_c\[3\]\.lc_i\.i0
*546 y_c\[3\]\.x_c\[3\]\.lc_i\.i0a
*547 y_c\[3\]\.x_c\[3\]\.lc_i\.i0b
*548 y_c\[3\]\.x_c\[3\]\.lc_i\.i1
*549 y_c\[3\]\.x_c\[3\]\.lc_i\.i1a
*550 y_c\[3\]\.x_c\[3\]\.lc_i\.i1b
*551 y_c\[3\]\.x_c\[3\]\.lc_i\.muxo_n
*552 y_c\[3\]\.x_c\[3\]\.lc_i\.s0
*553 y_c\[3\]\.x_c\[3\]\.lc_i\.s0a
*554 y_c\[3\]\.x_c\[3\]\.lc_i\.s0b
*555 y_c\[3\]\.x_c\[3\]\.lc_i\.s0s
*556 y_c\[3\]\.x_c\[4\]\.lc_i\.B
*557 y_c\[3\]\.x_c\[4\]\.lc_i\.cfg\[0\]
*558 y_c\[3\]\.x_c\[4\]\.lc_i\.cfg\[1\]
*559 y_c\[3\]\.x_c\[4\]\.lc_i\.cfg\[2\]
*560 y_c\[3\]\.x_c\[4\]\.lc_i\.cfg\[3\]
*561 y_c\[3\]\.x_c\[4\]\.lc_i\.cfg\[4\]
*562 y_c\[3\]\.x_c\[4\]\.lc_i\.cfg\[5\]
*563 y_c\[3\]\.x_c\[4\]\.lc_i\.cfg\[6\]
*564 y_c\[3\]\.x_c\[4\]\.lc_i\.cfg\[7\]
*565 y_c\[3\]\.x_c\[4\]\.lc_i\.dff\.dffo_n
*566 y_c\[3\]\.x_c\[4\]\.lc_i\.i0
*567 y_c\[3\]\.x_c\[4\]\.lc_i\.i0a
*568 y_c\[3\]\.x_c\[4\]\.lc_i\.i0b
*569 y_c\[3\]\.x_c\[4\]\.lc_i\.i1
*570 y_c\[3\]\.x_c\[4\]\.lc_i\.i1a
*571 y_c\[3\]\.x_c\[4\]\.lc_i\.i1b
*572 y_c\[3\]\.x_c\[4\]\.lc_i\.muxo_n
*573 y_c\[3\]\.x_c\[4\]\.lc_i\.s0
*574 y_c\[3\]\.x_c\[4\]\.lc_i\.s0a
*575 y_c\[3\]\.x_c\[4\]\.lc_i\.s0b
*576 y_c\[3\]\.x_c\[4\]\.lc_i\.s0s
*577 y_c\[4\]\.x_c\[0\]\.lc_i\.B
*578 y_c\[4\]\.x_c\[0\]\.lc_i\.L
*579 y_c\[4\]\.x_c\[0\]\.lc_i\.cfg\[0\]
*580 y_c\[4\]\.x_c\[0\]\.lc_i\.cfg\[1\]
*581 y_c\[4\]\.x_c\[0\]\.lc_i\.cfg\[2\]
*582 y_c\[4\]\.x_c\[0\]\.lc_i\.cfg\[3\]
*583 y_c\[4\]\.x_c\[0\]\.lc_i\.cfg\[4\]
*584 y_c\[4\]\.x_c\[0\]\.lc_i\.cfg\[5\]
*585 y_c\[4\]\.x_c\[0\]\.lc_i\.cfg\[6\]
*586 y_c\[4\]\.x_c\[0\]\.lc_i\.cfg\[7\]
*587 y_c\[4\]\.x_c\[0\]\.lc_i\.cfg_strb\[0\]
*588 y_c\[4\]\.x_c\[0\]\.lc_i\.cfg_strb\[1\]
*589 y_c\[4\]\.x_c\[0\]\.lc_i\.dff\.dffo_n
*590 y_c\[4\]\.x_c\[0\]\.lc_i\.i0
*591 y_c\[4\]\.x_c\[0\]\.lc_i\.i0a
*592 y_c\[4\]\.x_c\[0\]\.lc_i\.i0b
*593 y_c\[4\]\.x_c\[0\]\.lc_i\.i1
*594 y_c\[4\]\.x_c\[0\]\.lc_i\.i1a
*595 y_c\[4\]\.x_c\[0\]\.lc_i\.i1b
*596 y_c\[4\]\.x_c\[0\]\.lc_i\.muxo_n
*597 y_c\[4\]\.x_c\[0\]\.lc_i\.s0
*598 y_c\[4\]\.x_c\[0\]\.lc_i\.s0a
*599 y_c\[4\]\.x_c\[0\]\.lc_i\.s0b
*600 y_c\[4\]\.x_c\[0\]\.lc_i\.s0s
*601 y_c\[4\]\.x_c\[1\]\.lc_i\.B
*602 y_c\[4\]\.x_c\[1\]\.lc_i\.cfg\[0\]
*603 y_c\[4\]\.x_c\[1\]\.lc_i\.cfg\[1\]
*604 y_c\[4\]\.x_c\[1\]\.lc_i\.cfg\[2\]
*605 y_c\[4\]\.x_c\[1\]\.lc_i\.cfg\[3\]
*606 y_c\[4\]\.x_c\[1\]\.lc_i\.cfg\[4\]
*607 y_c\[4\]\.x_c\[1\]\.lc_i\.cfg\[5\]
*608 y_c\[4\]\.x_c\[1\]\.lc_i\.cfg\[6\]
*609 y_c\[4\]\.x_c\[1\]\.lc_i\.cfg\[7\]
*610 y_c\[4\]\.x_c\[1\]\.lc_i\.dff\.dffo_n
*611 y_c\[4\]\.x_c\[1\]\.lc_i\.i0
*612 y_c\[4\]\.x_c\[1\]\.lc_i\.i0a
*613 y_c\[4\]\.x_c\[1\]\.lc_i\.i0b
*614 y_c\[4\]\.x_c\[1\]\.lc_i\.i1
*615 y_c\[4\]\.x_c\[1\]\.lc_i\.i1a
*616 y_c\[4\]\.x_c\[1\]\.lc_i\.i1b
*617 y_c\[4\]\.x_c\[1\]\.lc_i\.muxo_n
*618 y_c\[4\]\.x_c\[1\]\.lc_i\.s0
*619 y_c\[4\]\.x_c\[1\]\.lc_i\.s0a
*620 y_c\[4\]\.x_c\[1\]\.lc_i\.s0b
*621 y_c\[4\]\.x_c\[1\]\.lc_i\.s0s
*622 y_c\[4\]\.x_c\[2\]\.lc_i\.B
*623 y_c\[4\]\.x_c\[2\]\.lc_i\.cfg\[0\]
*624 y_c\[4\]\.x_c\[2\]\.lc_i\.cfg\[1\]
*625 y_c\[4\]\.x_c\[2\]\.lc_i\.cfg\[2\]
*626 y_c\[4\]\.x_c\[2\]\.lc_i\.cfg\[3\]
*627 y_c\[4\]\.x_c\[2\]\.lc_i\.cfg\[4\]
*628 y_c\[4\]\.x_c\[2\]\.lc_i\.cfg\[5\]
*629 y_c\[4\]\.x_c\[2\]\.lc_i\.cfg\[6\]
*630 y_c\[4\]\.x_c\[2\]\.lc_i\.cfg\[7\]
*631 y_c\[4\]\.x_c\[2\]\.lc_i\.dff\.dffo_n
*632 y_c\[4\]\.x_c\[2\]\.lc_i\.i0
*633 y_c\[4\]\.x_c\[2\]\.lc_i\.i0a
*634 y_c\[4\]\.x_c\[2\]\.lc_i\.i0b
*635 y_c\[4\]\.x_c\[2\]\.lc_i\.i1
*636 y_c\[4\]\.x_c\[2\]\.lc_i\.i1a
*637 y_c\[4\]\.x_c\[2\]\.lc_i\.i1b
*638 y_c\[4\]\.x_c\[2\]\.lc_i\.muxo_n
*639 y_c\[4\]\.x_c\[2\]\.lc_i\.s0
*640 y_c\[4\]\.x_c\[2\]\.lc_i\.s0a
*641 y_c\[4\]\.x_c\[2\]\.lc_i\.s0b
*642 y_c\[4\]\.x_c\[2\]\.lc_i\.s0s
*643 y_c\[4\]\.x_c\[3\]\.lc_i\.B
*644 y_c\[4\]\.x_c\[3\]\.lc_i\.cfg\[0\]
*645 y_c\[4\]\.x_c\[3\]\.lc_i\.cfg\[1\]
*646 y_c\[4\]\.x_c\[3\]\.lc_i\.cfg\[2\]
*647 y_c\[4\]\.x_c\[3\]\.lc_i\.cfg\[3\]
*648 y_c\[4\]\.x_c\[3\]\.lc_i\.cfg\[4\]
*649 y_c\[4\]\.x_c\[3\]\.lc_i\.cfg\[5\]
*650 y_c\[4\]\.x_c\[3\]\.lc_i\.cfg\[6\]
*651 y_c\[4\]\.x_c\[3\]\.lc_i\.cfg\[7\]
*652 y_c\[4\]\.x_c\[3\]\.lc_i\.dff\.dffo_n
*653 y_c\[4\]\.x_c\[3\]\.lc_i\.i0
*654 y_c\[4\]\.x_c\[3\]\.lc_i\.i0a
*655 y_c\[4\]\.x_c\[3\]\.lc_i\.i0b
*656 y_c\[4\]\.x_c\[3\]\.lc_i\.i1
*657 y_c\[4\]\.x_c\[3\]\.lc_i\.i1a
*658 y_c\[4\]\.x_c\[3\]\.lc_i\.i1b
*659 y_c\[4\]\.x_c\[3\]\.lc_i\.muxo_n
*660 y_c\[4\]\.x_c\[3\]\.lc_i\.s0
*661 y_c\[4\]\.x_c\[3\]\.lc_i\.s0a
*662 y_c\[4\]\.x_c\[3\]\.lc_i\.s0b
*663 y_c\[4\]\.x_c\[3\]\.lc_i\.s0s
*664 y_c\[4\]\.x_c\[4\]\.lc_i\.B
*665 y_c\[4\]\.x_c\[4\]\.lc_i\.cfg\[0\]
*666 y_c\[4\]\.x_c\[4\]\.lc_i\.cfg\[1\]
*667 y_c\[4\]\.x_c\[4\]\.lc_i\.cfg\[2\]
*668 y_c\[4\]\.x_c\[4\]\.lc_i\.cfg\[3\]
*669 y_c\[4\]\.x_c\[4\]\.lc_i\.cfg\[4\]
*670 y_c\[4\]\.x_c\[4\]\.lc_i\.cfg\[5\]
*671 y_c\[4\]\.x_c\[4\]\.lc_i\.cfg\[6\]
*672 y_c\[4\]\.x_c\[4\]\.lc_i\.cfg\[7\]
*673 y_c\[4\]\.x_c\[4\]\.lc_i\.dff\.dffo_n
*674 y_c\[4\]\.x_c\[4\]\.lc_i\.i0
*675 y_c\[4\]\.x_c\[4\]\.lc_i\.i0a
*676 y_c\[4\]\.x_c\[4\]\.lc_i\.i0b
*677 y_c\[4\]\.x_c\[4\]\.lc_i\.i1
*678 y_c\[4\]\.x_c\[4\]\.lc_i\.i1a
*679 y_c\[4\]\.x_c\[4\]\.lc_i\.i1b
*680 y_c\[4\]\.x_c\[4\]\.lc_i\.muxo_n
*681 y_c\[4\]\.x_c\[4\]\.lc_i\.s0
*682 y_c\[4\]\.x_c\[4\]\.lc_i\.s0a
*683 y_c\[4\]\.x_c\[4\]\.lc_i\.s0b
*684 y_c\[4\]\.x_c\[4\]\.lc_i\.s0s
*685 y_c\[5\]\.x_c\[0\]\.lc_i\.L
*686 y_c\[5\]\.x_c\[0\]\.lc_i\.cfg\[0\]
*687 y_c\[5\]\.x_c\[0\]\.lc_i\.cfg\[1\]
*688 y_c\[5\]\.x_c\[0\]\.lc_i\.cfg\[2\]
*689 y_c\[5\]\.x_c\[0\]\.lc_i\.cfg\[3\]
*690 y_c\[5\]\.x_c\[0\]\.lc_i\.cfg\[4\]
*691 y_c\[5\]\.x_c\[0\]\.lc_i\.cfg\[5\]
*692 y_c\[5\]\.x_c\[0\]\.lc_i\.cfg\[6\]
*693 y_c\[5\]\.x_c\[0\]\.lc_i\.cfg\[7\]
*694 y_c\[5\]\.x_c\[0\]\.lc_i\.cfg_strb\[0\]
*695 y_c\[5\]\.x_c\[0\]\.lc_i\.cfg_strb\[1\]
*696 y_c\[5\]\.x_c\[0\]\.lc_i\.dff\.dffo_n
*697 y_c\[5\]\.x_c\[0\]\.lc_i\.i0
*698 y_c\[5\]\.x_c\[0\]\.lc_i\.i0a
*699 y_c\[5\]\.x_c\[0\]\.lc_i\.i0b
*700 y_c\[5\]\.x_c\[0\]\.lc_i\.i1
*701 y_c\[5\]\.x_c\[0\]\.lc_i\.i1a
*702 y_c\[5\]\.x_c\[0\]\.lc_i\.i1b
*703 y_c\[5\]\.x_c\[0\]\.lc_i\.muxo_n
*704 y_c\[5\]\.x_c\[0\]\.lc_i\.s0
*705 y_c\[5\]\.x_c\[0\]\.lc_i\.s0a
*706 y_c\[5\]\.x_c\[0\]\.lc_i\.s0b
*707 y_c\[5\]\.x_c\[0\]\.lc_i\.s0s
*708 y_c\[5\]\.x_c\[1\]\.lc_i\.cfg\[0\]
*709 y_c\[5\]\.x_c\[1\]\.lc_i\.cfg\[1\]
*710 y_c\[5\]\.x_c\[1\]\.lc_i\.cfg\[2\]
*711 y_c\[5\]\.x_c\[1\]\.lc_i\.cfg\[3\]
*712 y_c\[5\]\.x_c\[1\]\.lc_i\.cfg\[4\]
*713 y_c\[5\]\.x_c\[1\]\.lc_i\.cfg\[5\]
*714 y_c\[5\]\.x_c\[1\]\.lc_i\.cfg\[6\]
*715 y_c\[5\]\.x_c\[1\]\.lc_i\.cfg\[7\]
*716 y_c\[5\]\.x_c\[1\]\.lc_i\.dff\.dffo_n
*717 y_c\[5\]\.x_c\[1\]\.lc_i\.i0
*718 y_c\[5\]\.x_c\[1\]\.lc_i\.i0a
*719 y_c\[5\]\.x_c\[1\]\.lc_i\.i0b
*720 y_c\[5\]\.x_c\[1\]\.lc_i\.i1
*721 y_c\[5\]\.x_c\[1\]\.lc_i\.i1a
*722 y_c\[5\]\.x_c\[1\]\.lc_i\.i1b
*723 y_c\[5\]\.x_c\[1\]\.lc_i\.muxo_n
*724 y_c\[5\]\.x_c\[1\]\.lc_i\.s0
*725 y_c\[5\]\.x_c\[1\]\.lc_i\.s0a
*726 y_c\[5\]\.x_c\[1\]\.lc_i\.s0b
*727 y_c\[5\]\.x_c\[1\]\.lc_i\.s0s
*728 y_c\[5\]\.x_c\[2\]\.lc_i\.cfg\[0\]
*729 y_c\[5\]\.x_c\[2\]\.lc_i\.cfg\[1\]
*730 y_c\[5\]\.x_c\[2\]\.lc_i\.cfg\[2\]
*731 y_c\[5\]\.x_c\[2\]\.lc_i\.cfg\[3\]
*732 y_c\[5\]\.x_c\[2\]\.lc_i\.cfg\[4\]
*733 y_c\[5\]\.x_c\[2\]\.lc_i\.cfg\[5\]
*734 y_c\[5\]\.x_c\[2\]\.lc_i\.cfg\[6\]
*735 y_c\[5\]\.x_c\[2\]\.lc_i\.cfg\[7\]
*736 y_c\[5\]\.x_c\[2\]\.lc_i\.dff\.dffo_n
*737 y_c\[5\]\.x_c\[2\]\.lc_i\.i0
*738 y_c\[5\]\.x_c\[2\]\.lc_i\.i0a
*739 y_c\[5\]\.x_c\[2\]\.lc_i\.i0b
*740 y_c\[5\]\.x_c\[2\]\.lc_i\.i1
*741 y_c\[5\]\.x_c\[2\]\.lc_i\.i1a
*742 y_c\[5\]\.x_c\[2\]\.lc_i\.i1b
*743 y_c\[5\]\.x_c\[2\]\.lc_i\.muxo_n
*744 y_c\[5\]\.x_c\[2\]\.lc_i\.s0
*745 y_c\[5\]\.x_c\[2\]\.lc_i\.s0a
*746 y_c\[5\]\.x_c\[2\]\.lc_i\.s0b
*747 y_c\[5\]\.x_c\[2\]\.lc_i\.s0s
*748 y_c\[5\]\.x_c\[3\]\.lc_i\.cfg\[0\]
*749 y_c\[5\]\.x_c\[3\]\.lc_i\.cfg\[1\]
*750 y_c\[5\]\.x_c\[3\]\.lc_i\.cfg\[2\]
*751 y_c\[5\]\.x_c\[3\]\.lc_i\.cfg\[3\]
*752 y_c\[5\]\.x_c\[3\]\.lc_i\.cfg\[4\]
*753 y_c\[5\]\.x_c\[3\]\.lc_i\.cfg\[5\]
*754 y_c\[5\]\.x_c\[3\]\.lc_i\.cfg\[6\]
*755 y_c\[5\]\.x_c\[3\]\.lc_i\.cfg\[7\]
*756 y_c\[5\]\.x_c\[3\]\.lc_i\.dff\.dffo_n
*757 y_c\[5\]\.x_c\[3\]\.lc_i\.i0
*758 y_c\[5\]\.x_c\[3\]\.lc_i\.i0a
*759 y_c\[5\]\.x_c\[3\]\.lc_i\.i0b
*760 y_c\[5\]\.x_c\[3\]\.lc_i\.i1
*761 y_c\[5\]\.x_c\[3\]\.lc_i\.i1a
*762 y_c\[5\]\.x_c\[3\]\.lc_i\.i1b
*763 y_c\[5\]\.x_c\[3\]\.lc_i\.muxo_n
*764 y_c\[5\]\.x_c\[3\]\.lc_i\.s0
*765 y_c\[5\]\.x_c\[3\]\.lc_i\.s0a
*766 y_c\[5\]\.x_c\[3\]\.lc_i\.s0b
*767 y_c\[5\]\.x_c\[3\]\.lc_i\.s0s
*768 y_c\[5\]\.x_c\[4\]\.lc_i\.cfg\[0\]
*769 y_c\[5\]\.x_c\[4\]\.lc_i\.cfg\[1\]
*770 y_c\[5\]\.x_c\[4\]\.lc_i\.cfg\[2\]
*771 y_c\[5\]\.x_c\[4\]\.lc_i\.cfg\[3\]
*772 y_c\[5\]\.x_c\[4\]\.lc_i\.cfg\[4\]
*773 y_c\[5\]\.x_c\[4\]\.lc_i\.cfg\[5\]
*774 y_c\[5\]\.x_c\[4\]\.lc_i\.cfg\[6\]
*775 y_c\[5\]\.x_c\[4\]\.lc_i\.cfg\[7\]
*776 y_c\[5\]\.x_c\[4\]\.lc_i\.dff\.dffo_n
*777 y_c\[5\]\.x_c\[4\]\.lc_i\.i0
*778 y_c\[5\]\.x_c\[4\]\.lc_i\.i0a
*779 y_c\[5\]\.x_c\[4\]\.lc_i\.i0b
*780 y_c\[5\]\.x_c\[4\]\.lc_i\.i1
*781 y_c\[5\]\.x_c\[4\]\.lc_i\.i1a
*782 y_c\[5\]\.x_c\[4\]\.lc_i\.i1b
*783 y_c\[5\]\.x_c\[4\]\.lc_i\.muxo_n
*784 y_c\[5\]\.x_c\[4\]\.lc_i\.s0
*785 y_c\[5\]\.x_c\[4\]\.lc_i\.s0a
*786 y_c\[5\]\.x_c\[4\]\.lc_i\.s0b
*787 y_c\[5\]\.x_c\[4\]\.lc_i\.s0s
*788 ANTENNA_1
*789 ANTENNA_10
*790 ANTENNA_11
*791 ANTENNA_12
*792 ANTENNA_13
*793 ANTENNA_14
*794 ANTENNA_15
*795 ANTENNA_16
*796 ANTENNA_17
*797 ANTENNA_18
*798 ANTENNA_19
*799 ANTENNA_2
*800 ANTENNA_20
*801 ANTENNA_21
*802 ANTENNA_3
*803 ANTENNA_4
*804 ANTENNA_5
*805 ANTENNA_6
*806 ANTENNA_7
*807 ANTENNA_8
*808 ANTENNA_9
*809 FILLER_0_104
*810 FILLER_0_113
*811 FILLER_0_125
*812 FILLER_0_137
*813 FILLER_0_141
*814 FILLER_0_153
*815 FILLER_0_165
*816 FILLER_0_169
*817 FILLER_0_181
*818 FILLER_0_193
*819 FILLER_0_197
*820 FILLER_0_209
*821 FILLER_0_221
*822 FILLER_0_225
*823 FILLER_0_237
*824 FILLER_0_249
*825 FILLER_0_253
*826 FILLER_0_26
*827 FILLER_0_265
*828 FILLER_0_277
*829 FILLER_0_281
*830 FILLER_0_29
*831 FILLER_0_293
*832 FILLER_0_3
*833 FILLER_0_54
*834 FILLER_0_57
*835 FILLER_0_79
*836 FILLER_0_83
*837 FILLER_0_85
*838 FILLER_10_107
*839 FILLER_10_119
*840 FILLER_10_137
*841 FILLER_10_141
*842 FILLER_10_153
*843 FILLER_10_165
*844 FILLER_10_177
*845 FILLER_10_189
*846 FILLER_10_195
*847 FILLER_10_197
*848 FILLER_10_209
*849 FILLER_10_22
*850 FILLER_10_221
*851 FILLER_10_233
*852 FILLER_10_245
*853 FILLER_10_251
*854 FILLER_10_253
*855 FILLER_10_265
*856 FILLER_10_277
*857 FILLER_10_289
*858 FILLER_10_29
*859 FILLER_10_297
*860 FILLER_10_3
*861 FILLER_10_37
*862 FILLER_10_41
*863 FILLER_10_66
*864 FILLER_10_76
*865 FILLER_10_85
*866 FILLER_11_106
*867 FILLER_11_113
*868 FILLER_11_128
*869 FILLER_11_144
*870 FILLER_11_166
*871 FILLER_11_169
*872 FILLER_11_174
*873 FILLER_11_186
*874 FILLER_11_193
*875 FILLER_11_20
*876 FILLER_11_205
*877 FILLER_11_217
*878 FILLER_11_223
*879 FILLER_11_225
*880 FILLER_11_24
*881 FILLER_11_241
*882 FILLER_11_253
*883 FILLER_11_265
*884 FILLER_11_277
*885 FILLER_11_281
*886 FILLER_11_293
*887 FILLER_11_50
*888 FILLER_11_57
*889 FILLER_11_82
*890 FILLER_11_90
*891 FILLER_11_94
*892 FILLER_12_113
*893 FILLER_12_121
*894 FILLER_12_135
*895 FILLER_12_139
*896 FILLER_12_141
*897 FILLER_12_147
*898 FILLER_12_156
*899 FILLER_12_168
*900 FILLER_12_189
*901 FILLER_12_195
*902 FILLER_12_197
*903 FILLER_12_209
*904 FILLER_12_221
*905 FILLER_12_235
*906 FILLER_12_247
*907 FILLER_12_251
*908 FILLER_12_253
*909 FILLER_12_26
*910 FILLER_12_265
*911 FILLER_12_277
*912 FILLER_12_289
*913 FILLER_12_29
*914 FILLER_12_297
*915 FILLER_12_3
*916 FILLER_12_36
*917 FILLER_12_40
*918 FILLER_12_66
*919 FILLER_12_74
*920 FILLER_12_82
*921 FILLER_12_85
*922 FILLER_12_93
*923 FILLER_12_98
*924 FILLER_13_106
*925 FILLER_13_113
*926 FILLER_13_126
*927 FILLER_13_135
*928 FILLER_13_157
*929 FILLER_13_164
*930 FILLER_13_169
*931 FILLER_13_189
*932 FILLER_13_201
*933 FILLER_13_213
*934 FILLER_13_221
*935 FILLER_13_225
*936 FILLER_13_237
*937 FILLER_13_249
*938 FILLER_13_261
*939 FILLER_13_27
*940 FILLER_13_273
*941 FILLER_13_279
*942 FILLER_13_281
*943 FILLER_13_293
*944 FILLER_13_3
*945 FILLER_13_54
*946 FILLER_13_57
*947 FILLER_13_79
*948 FILLER_13_9
*949 FILLER_13_91
*950 FILLER_13_97
*951 FILLER_14_101
*952 FILLER_14_117
*953 FILLER_14_133
*954 FILLER_14_139
*955 FILLER_14_141
*956 FILLER_14_155
*957 FILLER_14_171
*958 FILLER_14_183
*959 FILLER_14_195
*960 FILLER_14_197
*961 FILLER_14_211
*962 FILLER_14_223
*963 FILLER_14_235
*964 FILLER_14_247