*SPEF "ieee 1481-1999"
*DESIGN "github_com_proppy_tt02_xls_counter"
*DATE "11:11:11 Fri 11 11, 1111"
*VENDOR "OpenRCX"
*PROGRAM "Parallel Extraction"
*VERSION "1.0"
*DESIGN_FLOW "NAME_SCOPE LOCAL" "PIN_CAP NONE"
*DIVIDER /
*DELIMITER :
*BUS_DELIMITER []
*T_UNIT 1 NS
*C_UNIT 1 PF
*R_UNIT 1 OHM
*L_UNIT 1 HENRY

*NAME_MAP
*1 io_in[0]
*2 io_in[1]
*3 io_in[2]
*4 io_in[3]
*5 io_in[4]
*6 io_in[5]
*7 io_in[6]
*8 io_in[7]
*9 io_out[0]
*10 io_out[1]
*11 io_out[2]
*12 io_out[3]
*13 io_out[4]
*14 io_out[5]
*15 io_out[6]
*16 io_out[7]
*19 _00_
*20 _01_
*21 _02_
*22 _03_
*23 _04_
*24 _05_
*25 _06_
*26 _07_
*27 _08_
*28 _09_
*29 _10_
*30 _11_
*31 _12_
*32 _13_
*33 _14_
*34 _15_
*35 _16_
*36 _17_
*37 _18_
*38 _19_
*39 _20_
*40 _21_
*41 _22_
*42 _23_
*43 _24_
*44 _25_
*45 _26_
*46 _27_
*47 _28_
*48 _29_
*49 _30_
*50 _31_
*51 _32_
*52 _33_
*53 _34_
*54 _35_
*55 _36_
*56 _37_
*57 clknet_0_io_in[0]
*58 clknet_1_0__leaf_io_in[0]
*59 clknet_1_1__leaf_io_in[0]
*60 counter0\.____state\[0\]
*61 counter0\.____state\[1\]
*62 counter0\.____state\[2\]
*63 counter0\.____state\[3\]
*64 counter0\.____state\[4\]
*65 counter0\.____state\[5\]
*66 counter0\.____state\[6\]
*67 counter0\.____state\[7\]
*68 net1
*69 FILLER_0_104
*70 FILLER_0_113
*71 FILLER_0_125
*72 FILLER_0_137
*73 FILLER_0_141
*74 FILLER_0_153
*75 FILLER_0_165
*76 FILLER_0_169
*77 FILLER_0_181
*78 FILLER_0_193
*79 FILLER_0_197
*80 FILLER_0_209
*81 FILLER_0_22
*82 FILLER_0_221
*83 FILLER_0_225
*84 FILLER_0_237
*85 FILLER_0_249
*86 FILLER_0_253
*87 FILLER_0_265
*88 FILLER_0_277
*89 FILLER_0_281
*90 FILLER_0_29
*91 FILLER_0_293
*92 FILLER_0_3
*93 FILLER_0_48
*94 FILLER_0_57
*95 FILLER_0_75
*96 FILLER_0_83
*97 FILLER_0_85
*98 FILLER_0_92
*99 FILLER_10_109
*100 FILLER_10_121
*101 FILLER_10_133
*102 FILLER_10_139
*103 FILLER_10_141
*104 FILLER_10_153
*105 FILLER_10_165
*106 FILLER_10_177
*107 FILLER_10_189
*108 FILLER_10_195
*109 FILLER_10_197
*110 FILLER_10_209
*111 FILLER_10_221
*112 FILLER_10_23
*113 FILLER_10_233
*114 FILLER_10_245
*115 FILLER_10_251
*116 FILLER_10_253
*117 FILLER_10_265
*118 FILLER_10_27
*119 FILLER_10_277
*120 FILLER_10_289
*121 FILLER_10_29
*122 FILLER_10_297
*123 FILLER_10_3
*124 FILLER_10_47
*125 FILLER_10_58
*126 FILLER_10_70
*127 FILLER_10_82
*128 FILLER_10_85
*129 FILLER_10_97
*130 FILLER_11_105
*131 FILLER_11_111
*132 FILLER_11_113
*133 FILLER_11_125
*134 FILLER_11_132
*135 FILLER_11_14
*136 FILLER_11_144
*137 FILLER_11_156
*138 FILLER_11_169
*139 FILLER_11_181
*140 FILLER_11_193
*141 FILLER_11_205
*142 FILLER_11_217
*143 FILLER_11_223
*144 FILLER_11_225
*145 FILLER_11_237
*146 FILLER_11_249
*147 FILLER_11_26
*148 FILLER_11_261
*149 FILLER_11_273
*150 FILLER_11_279
*151 FILLER_11_281
*152 FILLER_11_293
*153 FILLER_11_3
*154 FILLER_11_38
*155 FILLER_11_45
*156 FILLER_11_53
*157 FILLER_11_57
*158 FILLER_11_69
*159 FILLER_11_7
*160 FILLER_11_81
*161 FILLER_11_93
*162 FILLER_12_109
*163 FILLER_12_121
*164 FILLER_12_133
*165 FILLER_12_139
*166 FILLER_12_141
*167 FILLER_12_15
*168 FILLER_12_153
*169 FILLER_12_165
*170 FILLER_12_177
*171 FILLER_12_189
*172 FILLER_12_195
*173 FILLER_12_197
*174 FILLER_12_209
*175 FILLER_12_22
*176 FILLER_12_221
*177 FILLER_12_233
*178 FILLER_12_245
*179 FILLER_12_251
*180 FILLER_12_253
*181 FILLER_12_265
*182 FILLER_12_277
*183 FILLER_12_289
*184 FILLER_12_29
*185 FILLER_12_297
*186 FILLER_12_3
*187 FILLER_12_37
*188 FILLER_12_49
*189 FILLER_12_59
*190 FILLER_12_69
*191 FILLER_12_81
*192 FILLER_12_85
*193 FILLER_12_97
*194 FILLER_13_105
*195 FILLER_13_11
*196 FILLER_13_111
*197 FILLER_13_113
*198 FILLER_13_125
*199 FILLER_13_137
*200 FILLER_13_149
*201 FILLER_13_161
*202 FILLER_13_167
*203 FILLER_13_169
*204 FILLER_13_181
*205 FILLER_13_193
*206 FILLER_13_205
*207 FILLER_13_217
*208 FILLER_13_223
*209 FILLER_13_225
*210 FILLER_13_23
*211 FILLER_13_237
*212 FILLER_13_249
*213 FILLER_13_261
*214 FILLER_13_273
*215 FILLER_13_279
*216 FILLER_13_281
*217 FILLER_13_293
*218 FILLER_13_3
*219 FILLER_13_35
*220 FILLER_13_47
*221 FILLER_13_55
*222 FILLER_13_57
*223 FILLER_13_69
*224 FILLER_13_81
*225 FILLER_13_93
*226 FILLER_14_109
*227 FILLER_14_121
*228 FILLER_14_13
*229 FILLER_14_133
*230 FILLER_14_139
*231 FILLER_14_141
*232 FILLER_14_153
*233 FILLER_14_165
*234 FILLER_14_177
*235 FILLER_14_189
*236 FILLER_14_195
*237 FILLER_14_197
*238 FILLER_14_209
*239 FILLER_14_221
*240 FILLER_14_233
*241 FILLER_14_245
*242 FILLER_14_25
*243 FILLER_14_251
*244 FILLER_14_253
*245 FILLER_14_265
*246 FILLER_14_277
*247 FILLER_14_289
*248 FILLER_14_29
*249 FILLER_14_297
*250 FILLER_14_3
*251 FILLER_14_37
*252 FILLER_14_43
*253 FILLER_14_59
*254 FILLER_14_71
*255 FILLER_14_83
*256 FILLER_14_85
*257 FILLER_14_9
*258 FILLER_14_97
*259 FILLER_15_105
*260 FILLER_15_111
*261 FILLER_15_113
*262 FILLER_15_125
*263 FILLER_15_137
*264 FILLER_15_149
*265 FILLER_15_15
*266 FILLER_15_161
*267 FILLER_15_167
*268 FILLER_15_169
*269 FILLER_15_181
*270 FILLER_15_193
*271 FILLER_15_205
*272 FILLER_15_217
*273 FILLER_15_223
*274 FILLER_15_225
*275 FILLER_15_237
*276 FILLER_15_249
*277 FILLER_15_261
*278 FILLER_15_27
*279 FILLER_15_273
*280 FILLER_15_279
*281 FILLER_15_281
*282 FILLER_15_293
*283 FILLER_15_3
*284 FILLER_15_39
*285 FILLER_15_51
*286 FILLER_15_55
*287 FILLER_15_57
*288 FILLER_15_69
*289 FILLER_15_81
*290 FILLER_15_93
*291 FILLER_16_109
*292 FILLER_16_121
*293 FILLER_16_133
*294 FILLER_16_139
*295 FILLER_16_141
*296 FILLER_16_15
*297 FILLER_16_153
*298 FILLER_16_165
*299 FILLER_16_177
*300 FILLER_16_189
*301 FILLER_16_195
*302 FILLER_16_197
*303 FILLER_16_209
*304 FILLER_16_221
*305 FILLER_16_233
*306 FILLER_16_245
*307 FILLER_16_251
*308 FILLER_16_253
*309 FILLER_16_265
*310 FILLER_16_27
*311 FILLER_16_277
*312 FILLER_16_289
*313 FILLER_16_29
*314 FILLER_16_297
*315 FILLER_16_3
*316 FILLER_16_37
*317 FILLER_16_44
*318 FILLER_16_56
*319 FILLER_16_68
*320 FILLER_16_80
*321 FILLER_16_85
*322 FILLER_16_97
*323 FILLER_17_105
*324 FILLER_17_111
*325 FILLER_17_113
*326 FILLER_17_125
*327 FILLER_17_137
*328 FILLER_17_149
*329 FILLER_17_161
*330 FILLER_17_167
*331 FILLER_17_169
*332 FILLER_17_18
*333 FILLER_17_181
*334 FILLER_17_193
*335 FILLER_17_205
*336 FILLER_17_217
*337 FILLER_17_223
*338 FILLER_17_225
*339 FILLER_17_237
*340 FILLER_17_249
*341 FILLER_17_261
*342 FILLER_17_273
*343 FILLER_17_279
*344 FILLER_17_281
*345 FILLER_17_293
*346 FILLER_17_3
*347 FILLER_17_30
*348 FILLER_17_39
*349 FILLER_17_47
*350 FILLER_17_51
*351 FILLER_17_55
*352 FILLER_17_57
*353 FILLER_17_69
*354 FILLER_17_81
*355 FILLER_17_93
*356 FILLER_18_109
*357 FILLER_18_121
*358 FILLER_18_133
*359 FILLER_18_139
*360 FILLER_18_141
*361 FILLER_18_15
*362 FILLER_18_153
*363 FILLER_18_165
*364 FILLER_18_177
*365 FILLER_18_189
*366 FILLER_18_195
*367 FILLER_18_197
*368 FILLER_18_209
*369 FILLER_18_21
*370 FILLER_18_221
*371 FILLER_18_233
*372 FILLER_18_245
*373 FILLER_18_251
*374 FILLER_18_253
*375 FILLER_18_265
*376 FILLER_18_27
*377 FILLER_18_277
*378 FILLER_18_289
*379 FILLER_18_29
*380 FILLER_18_297
*381 FILLER_18_3
*382 FILLER_18_41
*383 FILLER_18_53
*384 FILLER_18_65
*385 FILLER_18_77
*386 FILLER_18_83
*387 FILLER_18_85
*388 FILLER_18_9
*389 FILLER_18_97
*390 FILLER_19_105
*391 FILLER_19_111
*392 FILLER_19_113
*393 FILLER_19_125
*394 FILLER_19_137
*395 FILLER_19_149
*396 FILLER_19_15
*397 FILLER_19_161
*398 FILLER_19_167
*399 FILLER_19_169
*400 FILLER_19_181
*401 FILLER_19_193
*402 FILLER_19_205
*403 FILLER_19_217
*404 FILLER_19_223
*405 FILLER_19_225
*406 FILLER_19_237
*407 FILLER_19_249
*408 FILLER_19_261
*409 FILLER_19_27
*410 FILLER_19_273
*411 FILLER_19_279
*412 FILLER_19_281
*413 FILLER_19_293
*414 FILLER_19_3
*415 FILLER_19_39
*416 FILLER_19_51
*417 FILLER_19_55
*418 FILLER_19_57
*419 FILLER_19_69
*420 FILLER_19_81
*421 FILLER_19_93
*422 FILLER_1_103
*423 FILLER_1_111
*424 FILLER_1_113
*425 FILLER_1_125
*426 FILLER_1_137
*427 FILLER_1_149
*428 FILLER_1_15
*429 FILLER_1_161
*430 FILLER_1_167
*431 FILLER_1_169
*432 FILLER_1_181
*433 FILLER_1_193
*434 FILLER_1_205
*435 FILLER_1_217
*436 FILLER_1_223
*437 FILLER_1_225
*438 FILLER_1_237
*439 FILLER_1_249
*440 FILLER_1_261
*441 FILLER_1_273
*442 FILLER_1_279
*443 FILLER_1_281
*444 FILLER_1_293
*445 FILLER_1_3
*446 FILLER_1_36
*447 FILLER_1_48
*448 FILLER_1_53
*449 FILLER_1_57
*450 FILLER_1_65
*451 FILLER_1_76
*452 FILLER_1_84
*453 FILLER_1_91
*454 FILLER_20_109
*455 FILLER_20_121
*456 FILLER_20_133
*457 FILLER_20_139
*458 FILLER_20_141
*459 FILLER_20_15
*460 FILLER_20_153
*461 FILLER_20_165
*462 FILLER_20_177
*463 FILLER_20_189
*464 FILLER_20_195
*465 FILLER_20_197
*466 FILLER_20_209
*467 FILLER_20_22
*468 FILLER_20_221
*469 FILLER_20_233
*470 FILLER_20_245
*471 FILLER_20_251
*472 FILLER_20_253
*473 FILLER_20_265
*474 FILLER_20_277
*475 FILLER_20_289
*476 FILLER_20_29
*477 FILLER_20_297
*478 FILLER_20_3
*479 FILLER_20_41
*480 FILLER_20_53
*481 FILLER_20_65
*482 FILLER_20_77
*483 FILLER_20_83
*484 FILLER_20_85
*485 FILLER_20_97
*486 FILLER_21_105
*487 FILLER_21_111
*488 FILLER_21_113
*489 FILLER_21_125
*490 FILLER_21_137
*491 FILLER_21_149
*492 FILLER_21_15
*493 FILLER_21_161
*494 FILLER_21_167
*495 FILLER_21_169
*496 FILLER_21_181
*497 FILLER_21_193
*498 FILLER_21_205
*499 FILLER_21_217
*500 FILLER_21_223
*501 FILLER_21_225
*502 FILLER_21_237
*503 FILLER_21_249
*504 FILLER_21_261
*505 FILLER_21_27
*506 FILLER_21_273
*507 FILLER_21_279
*508 FILLER_21_281
*509 FILLER_21_293
*510 FILLER_21_3
*511 FILLER_21_39
*512 FILLER_21_51
*513 FILLER_21_55
*514 FILLER_21_57
*515 FILLER_21_69
*516 FILLER_21_81
*517 FILLER_21_93
*518 FILLER_22_109
*519 FILLER_22_121
*520 FILLER_22_133
*521 FILLER_22_139
*522 FILLER_22_141
*523 FILLER_22_15
*524 FILLER_22_153
*525 FILLER_22_165
*526 FILLER_22_177
*527 FILLER_22_189
*528 FILLER_22_195
*529 FILLER_22_197
*530 FILLER_22_209
*531 FILLER_22_221
*532 FILLER_22_233
*533 FILLER_22_245
*534 FILLER_22_251
*535 FILLER_22_253
*536 FILLER_22_265
*537 FILLER_22_27
*538 FILLER_22_277
*539 FILLER_22_289
*540 FILLER_22_29
*541 FILLER_22_297
*542 FILLER_22_3
*543 FILLER_22_41
*544 FILLER_22_53
*545 FILLER_22_65
*546 FILLER_22_77
*547 FILLER_22_83
*548 FILLER_22_85
*549 FILLER_22_97
*550 FILLER_23_105
*551 FILLER_23_111
*552 FILLER_23_113
*553 FILLER_23_125
*554 FILLER_23_137
*555 FILLER_23_149
*556 FILLER_23_15
*557 FILLER_23_161
*558 FILLER_23_167
*559 FILLER_23_169
*560 FILLER_23_181
*561 FILLER_23_193
*562 FILLER_23_205
*563 FILLER_23_217
*564 FILLER_23_223
*565 FILLER_23_225
*566 FILLER_23_237
*567 FILLER_23_249
*568 FILLER_23_261
*569 FILLER_23_27
*570 FILLER_23_273
*571 FILLER_23_279
*572 FILLER_23_281
*573 FILLER_23_293
*574 FILLER_23_3
*575 FILLER_23_39
*576 FILLER_23_51
*577 FILLER_23_55
*578 FILLER_23_57
*579 FILLER_23_69
*580 FILLER_23_81
*581 FILLER_23_93
*582 FILLER_24_109
*583 FILLER_24_121
*584 FILLER_24_133
*585 FILLER_24_139
*586 FILLER_24_141
*587 FILLER_24_15
*588 FILLER_24_153
*589 FILLER_24_165
*590 FILLER_24_177
*591 FILLER_24_189
*592 FILLER_24_195
*593 FILLER_24_197
*594 FILLER_24_209
*595 FILLER_24_221
*596 FILLER_24_233
*597 FILLER_24_245
*598 FILLER_24_251
*599 FILLER_24_253
*600 FILLER_24_265
*601 FILLER_24_27
*602 FILLER_24_277
*603 FILLER_24_289
*604 FILLER_24_29
*605 FILLER_24_297
*606 FILLER_24_3
*607 FILLER_24_41
*608 FILLER_24_53
*609 FILLER_24_65
*610 FILLER_24_77
*611 FILLER_24_83
*612 FILLER_24_85
*613 FILLER_24_97
*614 FILLER_25_105
*615 FILLER_25_111
*616 FILLER_25_113
*617 FILLER_25_125
*618 FILLER_25_137
*619 FILLER_25_149
*620 FILLER_25_15
*621 FILLER_25_161
*622 FILLER_25_167
*623 FILLER_25_169
*624 FILLER_25_181
*625 FILLER_25_193
*626 FILLER_25_205
*627 FILLER_25_217
*628 FILLER_25_223
*629 FILLER_25_225
*630 FILLER_25_237
*631 FILLER_25_249
*632 FILLER_25_261
*633 FILLER_25_27
*634 FILLER_25_273
*635 FILLER_25_279
*636 FILLER_25_281
*637 FILLER_25_293
*638 FILLER_25_3
*639 FILLER_25_39
*640 FILLER_25_51
*641 FILLER_25_55
*642 FILLER_25_57
*643 FILLER_25_69
*644 FILLER_25_81
*645 FILLER_25_93
*646 FILLER_26_109
*647 FILLER_26_121
*648 FILLER_26_133
*649 FILLER_26_139
*650 FILLER_26_141
*651 FILLER_26_15
*652 FILLER_26_153
*653 FILLER_26_165
*654 FILLER_26_177
*655 FILLER_26_189
*656 FILLER_26_195
*657 FILLER_26_197
*658 FILLER_26_209
*659 FILLER_26_221
*660 FILLER_26_233
*661 FILLER_26_245
*662 FILLER_26_251
*663 FILLER_26_253
*664 FILLER_26_265
*665 FILLER_26_27
*666 FILLER_26_277
*667 FILLER_26_289
*668 FILLER_26_29
*669 FILLER_26_297
*670 FILLER_26_3
*671 FILLER_26_41
*672 FILLER_26_53
*673 FILLER_26_65
*674 FILLER_26_77
*675 FILLER_26_83
*676 FILLER_26_85
*677 FILLER_26_97
*678 FILLER_27_105
*679 FILLER_27_111
*680 FILLER_27_113
*681 FILLER_27_125
*682 FILLER_27_137
*683 FILLER_27_149
*684 FILLER_27_15
*685 FILLER_27_161
*686 FILLER_27_167
*687 FILLER_27_169
*688 FILLER_27_181
*689 FILLER_27_193
*690 FILLER_27_205
*691 FILLER_27_217
*692 FILLER_27_223
*693 FILLER_27_225
*694 FILLER_27_237
*695 FILLER_27_249
*696 FILLER_27_261
*697 FILLER_27_27
*698 FILLER_27_273
*699 FILLER_27_279
*700 FILLER_27_281
*701 FILLER_27_293
*702 FILLER_27_3
*703 FILLER_27_39
*704 FILLER_27_51
*705 FILLER_27_55
*706 FILLER_27_57
*707 FILLER_27_69
*708 FILLER_27_81
*709 FILLER_27_93
*710 FILLER_28_109
*711 FILLER_28_121
*712 FILLER_28_133
*713 FILLER_28_139
*714 FILLER_28_141
*715 FILLER_28_15
*716 FILLER_28_153
*717 FILLER_28_165
*718 FILLER_28_177
*719 FILLER_28_189
*720 FILLER_28_195
*721 FILLER_28_197
*722 FILLER_28_209
*723 FILLER_28_221
*724 FILLER_28_233
*725 FILLER_28_245
*726 FILLER_28_251
*727 FILLER_28_253
*728 FILLER_28_265
*729 FILLER_28_27
*730 FILLER_28_277
*731 FILLER_28_289
*732 FILLER_28_29
*733 FILLER_28_297
*734 FILLER_28_3
*735 FILLER_28_41
*736 FILLER_28_53
*737 FILLER_28_65
*738 FILLER_28_77
*739 FILLER_28_83
*740 FILLER_28_85
*741 FILLER_28_97
*742 FILLER_29_105
*743 FILLER_29_111
*744 FILLER_29_113
*745 FILLER_29_125
*746 FILLER_29_137
*747 FILLER_29_149
*748 FILLER_29_15
*749 FILLER_29_161
*750 FILLER_29_167
*751 FILLER_29_169
*752 FILLER_29_181
*753 FILLER_29_193
*754 FILLER_29_205
*755 FILLER_29_217
*756 FILLER_29_223
*757 FILLER_29_225
*758 FILLER_29_237
*759 FILLER_29_249
*760 FILLER_29_261
*761 FILLER_29_27
*762 FILLER_29_273
*763 FILLER_29_279
*764 FILLER_29_281
*765 FILLER_29_293
*766 FILLER_29_3
*767 FILLER_29_39
*768 FILLER_29_51
*769 FILLER_29_55
*770 FILLER_29_57
*771 FILLER_29_69
*772 FILLER_29_81
*773 FILLER_29_93
*774 FILLER_2_109
*775 FILLER_2_121
*776 FILLER_2_133
*777 FILLER_2_139
*778 FILLER_2_141
*779 FILLER_2_153
*780 FILLER_2_165
*781 FILLER_2_177
*782 FILLER_2_189
*783 FILLER_2_195
*784 FILLER_2_197
*785 FILLER_2_209
*786 FILLER_2_22
*787 FILLER_2_221
*788 FILLER_2_233
*789 FILLER_2_245
*790 FILLER_2_251
*791 FILLER_2_253
*792 FILLER_2_265
*793 FILLER_2_277
*794 FILLER_2_289
*795 FILLER_2_29
*796 FILLER_2_297
*797 FILLER_2_3
*798 FILLER_2_48
*799 FILLER_2_52
*800 FILLER_2_59
*801 FILLER_2_66
*802 FILLER_2_72
*803 FILLER_2_76
*804 FILLER_2_85
*805 FILLER_2_97
*806 FILLER_30_109
*807 FILLER_30_121
*808 FILLER_30_133
*809 FILLER_30_139
*810 FILLER_30_141
*811 FILLER_30_15
*812 FILLER_30_153
*813 FILLER_30_165
*814 FILLER_30_177
*815 FILLER_30_189
*816 FILLER_30_195
*817 FILLER_30_197
*818 FILLER_30_209
*819 FILLER_30_221
*820 FILLER_30_233
*821 FILLER_30_245
*822 FILLER_30_251
*823 FILLER_30_253
*824 FILLER_30_265
*825 FILLER_30_27
*826 FILLER_30_277
*827 FILLER_30_289
*828 FILLER_30_29
*829 FILLER_30_297
*830 FILLER_30_3
*831 FILLER_30_41
*832 FILLER_30_53
*833 FILLER_30_65
*834 FILLER_30_77
*835 FILLER_30_83
*836 FILLER_30_85
*837 FILLER_30_97
*838 FILLER_31_105
*839 FILLER_31_111
*840 FILLER_31_113
*841 FILLER_31_125
*842 FILLER_31_137
*843 FILLER_31_149
*844 FILLER_31_15
*845 FILLER_31_161
*846 FILLER_31_167
*847 FILLER_31_169
*848 FILLER_31_181
*849 FILLER_31_193
*850 FILLER_31_205
*851 FILLER_31_217
*852 FILLER_31_223
*853 FILLER_31_225
*854 FILLER_31_237
*855 FILLER_31_249
*856 FILLER_31_261
*857 FILLER_31_27
*858 FILLER_31_273
*859 FILLER_31_279
*860 FILLER_31_281
*861 FILLER_31_293
*862 FILLER_31_3
*863 FILLER_31_39
*864 FILLER_31_51
*865 FILLER_31_55
*866 FILLER_31_57
*867 FILLER_31_69
*868 FILLER_31_81
*869 FILLER_31_93
*870 FILLER_32_109
*871 FILLER_32_121
*872 FILLER_32_133
*873 FILLER_32_139
*874 FILLER_32_141
*875 FILLER_32_15
*876 FILLER_32_153
*877 FILLER_32_165
*878 FILLER_32_177
*879 FILLER_32_189
*880 FILLER_32_195
*881 FILLER_32_197
*882 FILLER_32_209
*883 FILLER_32_221
*884 FILLER_32_233
*885 FILLER_32_245
*886 FILLER_32_251
*887 FILLER_32_253
*888 FILLER_32_265
*889 FILLER_32_27
*890 FILLER_32_277
*891 FILLER_32_289
*892 FILLER_32_29
*893 FILLER_32_297
*894 FILLER_32_3
*895 FILLER_32_41
*896 FILLER_32_53
*897 FILLER_32_65
*898 FILLER_32_77
*899 FILLER_32_83
*900 FILLER_32_85
*901 FILLER_32_97
*902 FILLER_33_105
*903 FILLER_33_111
*904 FILLER_33_113
*905 FILLER_33_125
*906 FILLER_33_137
*907 FILLER_33_149
*908 FILLER_33_15
*909 FILLER_33_161
*910 FILLER_33_167
*911 FILLER_33_169
*912 FILLER_33_181
*913 FILLER_33_193
*914 FILLER_33_205
*915 FILLER_33_217
*916 FILLER_33_223
*917 FILLER_33_225
*918 FILLER_33_237
*919 FILLER_33_249
*920 FILLER_33_261
*921 FILLER_33_27
*922 FILLER_33_273
*923 FILLER_33_279
*924 FILLER_33_281
*925 FILLER_33_293
*926 FILLER_33_3
*927 FILLER_33_39
*928 FILLER_33_51
*929 FILLER_33_55
*930 FILLER_33_57
*931 FILLER_33_69
*932 FILLER_33_81
*933 FILLER_33_93
*934 FILLER_34_109
*935 FILLER_34_121
*936 FILLER_34_133
*937 FILLER_34_139
*938 FILLER_34_141
*939 FILLER_34_15
*940 FILLER_34_153
*941 FILLER_34_165
*942 FILLER_34_177
*943 FILLER_34_189
*944 FILLER_34_195
*945 FILLER_34_197
*946 FILLER_34_209
*947 FILLER_34_221
*948 FILLER_34_233
*949 FILLER_34_245
*950 FILLER_34_251
*951 FILLER_34_253
*952 FILLER_34_265
*953 FILLER_34_27
*954 FILLER_34_277
*955 FILLER_34_289
*956 FILLER_34_29
*957 FILLER_34_297
*958 FILLER_34_3
*959 FILLER_34_41
*960 FILLER_34_53
*961 FILLER_34_65
*962 FILLER_34_77
*963 FILLER_34_83
*964 FILLER_34_85
*965 FILLER_34_97
*966 FILLER_35_105
*967 FILLER_35_111
*968 FILLER_35_113
*969 FILLER_35_125
*970 FILLER_35_137
*971 FILLER_35_149
*972 FILLER_35_15
*973 FILLER_35_161
*974 FILLER_35_167
*975 FILLER_35_169
*976 FILLER_35_181
*977 FILLER_35_193
*978 FILLER_35_205
*979 FILLER_35_217
*980 FILLER_35_223
*981 FILLER_35_225
*982 FILLER_35_237
*983 FILLER_35_249
*984 FILLER_35_261
*985 FILLER_35_27
*986 FILLER_35_273
*987 FILLER_35_279
*988 FILLER_35_281
*989 FILLER_35_293
*990 FILLER_35_3
*991 FILLER_35_39
*992 FILLER_35_51
*993 FILLER_35_55
*994 FILLER_35_57
*995 FILLER_35_69
*996 FILLER_35_81
*997 FILLER_35_93
*998 FILLER_36_109
*999 FILLER_36_121
*1000 FILLER_36_133
*1001 FILLER_36_139
*1002 FILLER_36_141
*1003 FILLER_36_15
*1004 FILLER_36_153
*1005 FILLER_36_165
*1006 FILLER_36_177
*1007 FILLER_36_189
*1008 FILLER_36_195
*1009 FILLER_36_197
*1010 FILLER_36_209
*1011 FILLER_36_221
*1012 FILLER_36_233
*1013 FILLER_36_245
*1014 FILLER_36_251
*1015 FILLER_36_253
*1016 FILLER_36_265
*1017 FILLER_36_27
*1018 FILLER_36_277
*1019 FILLER_36_289
*1020 FILLER_36_29
*1021 FILLER_36_297
*1022 FILLER_36_3
*1023 FILLER_36_41
*1024 FILLER_36_53
*1025 FILLER_36_65
*1026 FILLER_36_77
*1027 FILLER_36_83
*1028 FILLER_36_85
*1029 FILLER_36_97
*1030 FILLER_37_105
*1031 FILLER_37_111
*1032 FILLER_37_113
*1033 FILLER_37_125
*1034 FILLER_37_137
*1035 FILLER_37_149
*1036 FILLER_37_15
*1037 FILLER_37_161
*1038 FILLER_37_167
*1039 FILLER_37_169
*1040 FILLER_37_181
*1041 FILLER_37_193
*1042 FILLER_37_205
*1043 FILLER_37_217
*1044 FILLER_37_223
*1045 FILLER_37_225
*1046 FILLER_37_237
*1047 FILLER_37_249
*1048 FILLER_37_261
*1049 FILLER_37_27
*1050 FILLER_37_273
*1051 FILLER_37_279
*1052 FILLER_37_281
*1053 FILLER_37_293
*1054 FILLER_37_3
*1055 FILLER_37_39
*1056 FILLER_37_51
*1057 FILLER_37_55
*1058 FILLER_37_57
*1059 FILLER_37_69
*1060 FILLER_37_81
*1061 FILLER_37_93
*1062 FILLER_38_109
*1063 FILLER_38_121
*1064 FILLER_38_133
*1065 FILLER_38_139
*1066 FILLER_38_141
*1067 FILLER_38_15
*1068 FILLER_38_153
*1069 FILLER_38_165
*1070 FILLER_38_177
*1071 FILLER_38_189
*1072 FILLER_38_195
*1073 FILLER_38_197
*1074 FILLER_38_209
*1075 FILLER_38_221
*1076 FILLER_38_233
*1077 FILLER_38_245
*1078 FILLER_38_251
*1079 FILLER_38_253
*1080 FILLER_38_265
*1081 FILLER_38_27
*1082 FILLER_38_277
*1083 FILLER_38_289
*1084 FILLER_38_29
*1085 FILLER_38_297
*1086 FILLER_38_3
*1087 FILLER_38_41
*1088 FILLER_38_53
*1089 FILLER_38_65
*1090 FILLER_38_77
*1091 FILLER_38_83
*1092 FILLER_38_85
*1093 FILLER_38_97
*1094 FILLER_39_105
*1095 FILLER_39_111
*1096 FILLER_39_113
*1097 FILLER_39_125
*1098 FILLER_39_137
*1099 FILLER_39_149
*1100 FILLER_39_15
*1101 FILLER_39_161
*1102 FILLER_39_167
*1103 FILLER_39_169
*1104 FILLER_39_181
*1105 FILLER_39_193
*1106 FILLER_39_205
*1107 FILLER_39_217
*1108 FILLER_39_223
*1109 FILLER_39_225
*1110 FILLER_39_237
*1111 FILLER_39_249
*1112 FILLER_39_261
*1113 FILLER_39_27
*1114 FILLER_39_273
*1115 FILLER_39_279
*1116 FILLER_39_281
*1117 FILLER_39_293
*1118 FILLER_39_3
*1119 FILLER_39_39
*1120 FILLER_39_51
*1121 FILLER_39_55
*1122 FILLER_39_57
*1123 FILLER_39_69
*1124 FILLER_39_81
*1125 FILLER_39_93
*1126 FILLER_3_105
*1127 FILLER_3_111
*1128 FILLER_3_113
*1129 FILLER_3_125
*1130 FILLER_3_137
*1131 FILLER_3_149
*1132 FILLER_3_15
*1133 FILLER_3_161
*1134 FILLER_3_167
*1135 FILLER_3_169
*1136 FILLER_3_181
*1137 FILLER_3_193
*1138 FILLER_3_205
*1139 FILLER_3_217
*1140 FILLER_3_223
*1141 FILLER_3_225
*1142 FILLER_3_237
*1143 FILLER_3_249
*1144 FILLER_3_261
*1145 FILLER_3_27
*1146 FILLER_3_273
*1147 FILLER_3_279
*1148 FILLER_3_281
*1149 FILLER_3_293
*1150 FILLER_3_3
*1151 FILLER_3_47
*1152 FILLER_3_55
*1153 FILLER_3_57
*1154 FILLER_3_69
*1155 FILLER_3_81
*1156 FILLER_3_93
*1157 FILLER_40_109
*1158 FILLER_40_121
*1159 FILLER_40_133
*1160 FILLER_40_139
*1161 FILLER_40_141
*1162 FILLER_40_15
*1163 FILLER_40_153
*1164 FILLER_40_165
*1165 FILLER_40_177
*1166 FILLER_40_189
*1167 FILLER_40_195
*1168 FILLER_40_197
*1169 FILLER_40_209
*1170 FILLER_40_221
*1171 FILLER_40_233
*1172 FILLER_40_245
*1173 FILLER_40_251
*1174 FILLER_40_253
*1175 FILLER_40_265
*1176 FILLER_40_27
*1177 FILLER_40_277
*1178 FILLER_40_289
*1179 FILLER_40_29
*1180 FILLER_40_297
*1181 FILLER_40_3
*1182 FILLER_40_41
*1183 FILLER_40_53
*1184 FILLER_40_65
*1185 FILLER_40_77
*1186 FILLER_40_83
*1187 FILLER_40_85
*1188 FILLER_40_97
*1189 FILLER_41_105
*1190 FILLER_41_111
*1191 FILLER_41_113
*1192 FILLER_41_125
*1193 FILLER_41_137
*1194 FILLER_41_149
*1195 FILLER_41_15
*1196 FILLER_41_161
*1197 FILLER_41_167
*1198 FILLER_41_169
*1199 FILLER_41_181
*1200 FILLER_41_193
*1201 FILLER_41_205
*1202 FILLER_41_217
*1203 FILLER_41_223
*1204 FILLER_41_225
*1205 FILLER_41_237
*1206 FILLER_41_249
*1207 FILLER_41_261
*1208 FILLER_41_27
*1209 FILLER_41_273
*1210 FILLER_41_279
*1211 FILLER_41_281
*1212 FILLER_41_293
*1213 FILLER_41_3
*1214 FILLER_41_39
*1215 FILLER_41_51
*1216 FILLER_41_55
*1217 FILLER_41_57
*1218 FILLER_41_69
*1219 FILLER_41_81
*1220 FILLER_41_93
*1221 FILLER_42_109
*1222 FILLER_42_121
*1223 FILLER_42_133
*1224 FILLER_42_139
*1225 FILLER_42_141
*1226 FILLER_42_15
*1227 FILLER_42_153
*1228 FILLER_42_165
*1229 FILLER_42_177
*1230 FILLER_42_189
*1231 FILLER_42_195
*1232 FILLER_42_197
*1233 FILLER_42_209
*1234 FILLER_42_221
*1235 FILLER_42_233
*1236 FILLER_42_245
*1237 FILLER_42_251
*1238 FILLER_42_253
*1239 FILLER_42_265
*1240 FILLER_42_27
*1241 FILLER_42_277
*1242 FILLER_42_289
*1243 FILLER_42_29
*1244 FILLER_42_297
*1245 FILLER_42_3
*1246 FILLER_42_41
*1247 FILLER_42_53
*1248 FILLER_42_65
*1249 FILLER_42_77
*1250 FILLER_42_83
*1251 FILLER_42_85
*1252 FILLER_42_97
*1253 FILLER_43_105
*1254 FILLER_43_111
*1255 FILLER_43_113
*1256 FILLER_43_125
*1257 FILLER_43_137
*1258 FILLER_43_149
*1259 FILLER_43_15
*1260 FILLER_43_161
*1261 FILLER_43_167
*1262 FILLER_43_169
*1263 FILLER_43_181
*1264 FILLER_43_193
*1265 FILLER_43_205
*1266 FILLER_43_217
*1267 FILLER_43_223
*1268 FILLER_43_225
*1269 FILLER_43_237
*1270 FILLER_43_249
*1271 FILLER_43_261
*1272 FILLER_43_27
*1273 FILLER_43_273
*1274 FILLER_43_279
*1275 FILLER_43_281
*1276 FILLER_43_293
*1277 FILLER_43_3
*1278 FILLER_43_39
*1279 FILLER_43_51
*1280 FILLER_43_55
*1281 FILLER_43_57
*1282 FILLER_43_69
*1283 FILLER_43_81
*1284 FILLER_43_93
*1285 FILLER_44_109
*1286 FILLER_44_121
*1287 FILLER_44_133
*1288 FILLER_44_139
*1289 FILLER_44_141
*1290 FILLER_44_15
*1291 FILLER_44_153
*1292 FILLER_44_165
*1293 FILLER_44_177
*1294 FILLER_44_189
*1295 FILLER_44_195
*1296 FILLER_44_197
*1297 FILLER_44_209
*1298 FILLER_44_221
*1299 FILLER_44_233
*1300 FILLER_44_245
*1301 FILLER_44_251
*1302 FILLER_44_253
*1303 FILLER_44_265
*1304 FILLER_44_27
*1305 FILLER_44_277
*1306 FILLER_44_289
*1307 FILLER_44_29
*1308 FILLER_44_297
*1309 FILLER_44_3
*1310 FILLER_44_41
*1311 FILLER_44_53
*1312 FILLER_44_65
*1313 FILLER_44_77
*1314 FILLER_44_83
*1315 FILLER_44_85
*1316 FILLER_44_97
*1317 FILLER_45_105
*1318 FILLER_45_111
*1319 FILLER_45_113
*1320 FILLER_45_125
*1321 FILLER_45_137
*1322 FILLER_45_149
*1323 FILLER_45_15
*1324 FILLER_45_161
*1325 FILLER_45_167
*1326 FILLER_45_169
*1327 FILLER_45_181
*1328 FILLER_45_193
*1329 FILLER_45_205
*1330 FILLER_45_217
*1331 FILLER_45_223
*1332 FILLER_45_225
*1333 FILLER_45_237
*1334 FILLER_45_249
*1335 FILLER_45_261
*1336 FILLER_45_27
*1337 FILLER_45_273
*1338 FILLER_45_279
*1339 FILLER_45_281
*1340 FILLER_45_293
*1341 FILLER_45_3
*1342 FILLER_45_39
*1343 FILLER_45_51
*1344 FILLER_45_55
*1345 FILLER_45_57
*1346 FILLER_45_69
*1347 FILLER_45_81
*1348 FILLER_45_93
*1349 FILLER_46_109
*1350 FILLER_46_121
*1351 FILLER_46_133
*1352 FILLER_46_139
*1353 FILLER_46_141
*1354 FILLER_46_15
*1355 FILLER_46_153
*1356 FILLER_46_165
*1357 FILLER_46_177
*1358 FILLER_46_189
*1359 FILLER_46_195
*1360 FILLER_46_197
*1361 FILLER_46_209
*1362 FILLER_46_221
*1363 FILLER_46_233
*1364 FILLER_46_245
*1365 FILLER_46_251
*1366 FILLER_46_253
*1367 FILLER_46_265
*1368 FILLER_46_27
*1369 FILLER_46_277
*1370 FILLER_46_289
*1371 FILLER_46_29
*1372 FILLER_46_297
*1373 FILLER_46_3
*1374 FILLER_46_41
*1375 FILLER_46_53
*1376 FILLER_46_65
*1377 FILLER_46_77
*1378 FILLER_46_83
*1379 FILLER_46_85
*1380 FILLER_46_97
*1381 FILLER_47_105
*1382 FILLER_47_111
*1383 FILLER_47_113
*1384 FILLER_47_125
*1385 FILLER_47_137
*1386 FILLER_47_149
*1387 FILLER_47_15
*1388 FILLER_47_161
*1389 FILLER_47_167
*1390 FILLER_47_169
*1391 FILLER_47_181
*1392 FILLER_47_193
*1393 FILLER_47_205
*1394 FILLER_47_217
*1395 FILLER_47_223
*1396 FILLER_47_225
*1397 FILLER_47_237
*1398 FILLER_47_249
*1399 FILLER_47_261
*1400 FILLER_47_27
*1401 FILLER_47_273
*1402 FILLER_47_279
*1403 FILLER_47_281
*1404 FILLER_47_293
*1405 FILLER_47_3
*1406 FILLER_47_39
*1407 FILLER_47_51
*1408 FILLER_47_55
*1409 FILLER_47_57
*1410 FILLER_47_69
*1411 FILLER_47_81
*1412 FILLER_47_93
*1413 FILLER_48_109
*1414 FILLER_48_121
*1415 FILLER_48_133
*1416 FILLER_48_139
*1417 FILLER_48_141
*1418 FILLER_48_15
*1419 FILLER_48_153
*1420 FILLER_48_165
*1421 FILLER_48_177
*1422 FILLER_48_189
*1423 FILLER_48_195
*1424 FILLER_48_197
*1425 FILLER_48_209
*1426 FILLER_48_221
*1427 FILLER_48_233
*1428 FILLER_48_245
*1429 FILLER_48_251
*1430 FILLER_48_253
*1431 FILLER_48_265
*1432 FILLER_48_27
*1433 FILLER_48_277
*1434 FILLER_48_289
*1435 FILLER_48_29
*1436 FILLER_48_297
*1437 FILLER_48_3
*1438 FILLER_48_41
*1439 FILLER_48_53
*1440 FILLER_48_65
*1441 FILLER_48_77
*1442 FILLER_48_83
*1443 FILLER_48_85
*1444 FILLER_48_97
*1445 FILLER_49_105
*1446 FILLER_49_111
*1447 FILLER_49_113
*1448 FILLER_49_125
*1449 FILLER_49_137
*1450 FILLER_49_149
*1451 FILLER_49_15
*1452 FILLER_49_161
*1453 FILLER_49_167
*1454 FILLER_49_169
*1455 FILLER_49_181
*1456 FILLER_49_193
*1457 FILLER_49_205
*1458 FILLER_49_217
*1459 FILLER_49_223
*1460 FILLER_49_225
*1461 FILLER_49_237
*1462 FILLER_49_249
*1463 FILLER_49_261
*1464 FILLER_49_27
*1465 FILLER_49_273
*1466 FILLER_49_279
*1467 FILLER_49_281
*1468 FILLER_49_293
*1469 FILLER_49_3
*1470 FILLER_49_39
*1471 FILLER_49_51
*1472 FILLER_49_55
*1473 FILLER_49_57
*1474 FILLER_49_69
*1475 FILLER_49_81
*1476 FILLER_49_93
*1477 FILLER_4_103
*1478 FILLER_4_115
*1479 FILLER_4_127
*1480 FILLER_4_139
*1481 FILLER_4_141
*1482 FILLER_4_153
*1483 FILLER_4_165
*1484 FILLER_4_177
*1485 FILLER_4_189
*1486 FILLER_4_195
*1487 FILLER_4_197
*1488 FILLER_4_209
*1489 FILLER_4_21
*1490 FILLER_4_221
*1491 FILLER_4_233
*1492 FILLER_4_245
*1493 FILLER_4_251
*1494 FILLER_4_253
*1495 FILLER_4_265
*1496 FILLER_4_27
*1497 FILLER_4_277
*1498 FILLER_4_289
*1499 FILLER_4_29
*1500 FILLER_4_297
*1501 FILLER_4_3
*1502 FILLER_4_47
*1503 FILLER_4_56
*1504 FILLER_4_68
*1505 FILLER_4_80
*1506 FILLER_4_85
*1507 FILLER_4_91
*1508 FILLER_50_109
*1509 FILLER_50_121
*1510 FILLER_50_133
*1511 FILLER_50_139
*1512 FILLER_50_141
*1513 FILLER_50_15
*1514 FILLER_50_153
*1515 FILLER_50_165
*1516 FILLER_50_177
*1517 FILLER_50_189
*1518 FILLER_50_195
*1519 FILLER_50_197
*1520 FILLER_50_209
*1521 FILLER_50_221
*1522 FILLER_50_233
*1523 FILLER_50_245
*1524 FILLER_50_251
*1525 FILLER_50_253
*1526 FILLER_50_265
*1527 FILLER_50_27
*1528 FILLER_50_277
*1529 FILLER_50_289
*1530 FILLER_50_29
*1531 FILLER_50_297
*1532 FILLER_50_3
*1533 FILLER_50_41
*1534 FILLER_50_53
*1535 FILLER_50_65
*1536 FILLER_50_77
*1537 FILLER_50_83
*1538 FILLER_50_85
*1539 FILLER_50_97
*1540 FILLER_51_105
*1541 FILLER_51_111
*1542 FILLER_51_113
*1543 FILLER_51_125
*1544 FILLER_51_137
*1545 FILLER_51_149
*1546 FILLER_51_15
*1547 FILLER_51_161
*1548 FILLER_51_167
*1549 FILLER_51_169
*1550 FILLER_51_181
*1551 FILLER_51_193
*1552 FILLER_51_205
*1553 FILLER_51_217
*1554 FILLER_51_223
*1555 FILLER_51_225
*1556 FILLER_51_237
*1557 FILLER_51_249
*1558 FILLER_51_261
*1559 FILLER_51_27
*1560 FILLER_51_273
*1561 FILLER_51_279
*1562 FILLER_51_281
*1563 FILLER_51_293
*1564 FILLER_51_3
*1565 FILLER_51_39
*1566 FILLER_51_51
*1567 FILLER_51_55
*1568 FILLER_51_57
*1569 FILLER_51_69
*1570 FILLER_51_81
*1571 FILLER_51_93
*1572 FILLER_52_109
*1573 FILLER_52_121
*1574 FILLER_52_133
*1575 FILLER_52_139
*1576 FILLER_52_141
*1577 FILLER_52_15
*1578 FILLER_52_153
*1579 FILLER_52_165
*1580 FILLER_52_177
*1581 FILLER_52_189
*1582 FILLER_52_195
*1583 FILLER_52_197
*1584 FILLER_52_209
*1585 FILLER_52_221
*1586 FILLER_52_233
*1587 FILLER_52_245
*1588 FILLER_52_251
*1589 FILLER_52_253
*1590 FILLER_52_265
*1591 FILLER_52_27