*SPEF "ieee 1481-1999"
*DESIGN "github_com_proppy_tt02_xls_popcount"
*DATE "11:11:11 Fri 11 11, 1111"
*VENDOR "OpenRCX"
*PROGRAM "Parallel Extraction"
*VERSION "1.0"
*DESIGN_FLOW "NAME_SCOPE LOCAL" "PIN_CAP NONE"
*DIVIDER /
*DELIMITER :
*BUS_DELIMITER []
*T_UNIT 1 NS
*C_UNIT 1 PF
*R_UNIT 1 OHM
*L_UNIT 1 HENRY

*NAME_MAP
*1 io_in[0]
*2 io_in[1]
*3 io_in[2]
*4 io_in[3]
*5 io_in[4]
*6 io_in[5]
*7 io_in[6]
*8 io_in[7]
*9 io_out[0]
*10 io_out[1]
*11 io_out[2]
*12 io_out[3]
*13 net8
*14 net9
*15 net10
*16 net11
*19 _00_
*20 _01_
*21 _02_
*22 _03_
*23 _04_
*24 _05_
*25 _06_
*26 _07_
*27 _08_
*28 _09_
*29 _10_
*30 _11_
*31 _12_
*32 _13_
*33 _14_
*34 _15_
*35 _16_
*36 _17_
*37 _18_
*38 clknet_0__05_
*39 clknet_0__06_
*40 clknet_0__12_
*41 clknet_0__14_
*42 clknet_0__15_
*43 clknet_0_io_in[0]
*44 clknet_1_0__leaf__05_
*45 clknet_1_0__leaf__06_
*46 clknet_1_0__leaf__12_
*47 clknet_1_0__leaf__14_
*48 clknet_1_0__leaf__15_
*49 clknet_1_0__leaf_io_in[0]
*50 clknet_1_1__leaf__05_
*51 clknet_1_1__leaf__06_
*52 clknet_1_1__leaf__12_
*53 clknet_1_1__leaf__14_
*54 clknet_1_1__leaf__15_
*55 clknet_1_1__leaf_io_in[0]
*56 net1
*57 net2
*58 net3
*59 net4
*60 net5
*61 net6
*62 net7
*63 FILLER_0_109
*64 FILLER_0_113
*65 FILLER_0_125
*66 FILLER_0_137
*67 FILLER_0_141
*68 FILLER_0_15
*69 FILLER_0_153
*70 FILLER_0_165
*71 FILLER_0_169
*72 FILLER_0_181
*73 FILLER_0_193
*74 FILLER_0_197
*75 FILLER_0_209
*76 FILLER_0_221
*77 FILLER_0_225
*78 FILLER_0_237
*79 FILLER_0_249
*80 FILLER_0_253
*81 FILLER_0_265
*82 FILLER_0_27
*83 FILLER_0_277
*84 FILLER_0_281
*85 FILLER_0_29
*86 FILLER_0_293
*87 FILLER_0_3
*88 FILLER_0_41
*89 FILLER_0_53
*90 FILLER_0_57
*91 FILLER_0_69
*92 FILLER_0_81
*93 FILLER_0_85
*94 FILLER_0_97
*95 FILLER_10_109
*96 FILLER_10_121
*97 FILLER_10_133
*98 FILLER_10_139
*99 FILLER_10_141
*100 FILLER_10_15
*101 FILLER_10_153
*102 FILLER_10_165
*103 FILLER_10_177
*104 FILLER_10_189
*105 FILLER_10_195
*106 FILLER_10_197
*107 FILLER_10_209
*108 FILLER_10_221
*109 FILLER_10_233
*110 FILLER_10_245
*111 FILLER_10_251
*112 FILLER_10_253
*113 FILLER_10_265
*114 FILLER_10_27
*115 FILLER_10_277
*116 FILLER_10_289
*117 FILLER_10_29
*118 FILLER_10_297
*119 FILLER_10_3
*120 FILLER_10_41
*121 FILLER_10_53
*122 FILLER_10_65
*123 FILLER_10_77
*124 FILLER_10_83
*125 FILLER_10_85
*126 FILLER_10_97
*127 FILLER_11_105
*128 FILLER_11_111
*129 FILLER_11_113
*130 FILLER_11_125
*131 FILLER_11_137
*132 FILLER_11_149
*133 FILLER_11_15
*134 FILLER_11_161
*135 FILLER_11_167
*136 FILLER_11_169
*137 FILLER_11_181
*138 FILLER_11_193
*139 FILLER_11_205
*140 FILLER_11_217
*141 FILLER_11_223
*142 FILLER_11_225
*143 FILLER_11_237
*144 FILLER_11_249
*145 FILLER_11_261
*146 FILLER_11_27
*147 FILLER_11_273
*148 FILLER_11_279
*149 FILLER_11_281
*150 FILLER_11_293
*151 FILLER_11_3
*152 FILLER_11_39
*153 FILLER_11_51
*154 FILLER_11_55
*155 FILLER_11_57
*156 FILLER_11_69
*157 FILLER_11_81
*158 FILLER_11_93
*159 FILLER_12_109
*160 FILLER_12_121
*161 FILLER_12_133
*162 FILLER_12_139
*163 FILLER_12_141
*164 FILLER_12_153
*165 FILLER_12_165
*166 FILLER_12_177
*167 FILLER_12_189
*168 FILLER_12_195
*169 FILLER_12_197
*170 FILLER_12_209
*171 FILLER_12_21
*172 FILLER_12_221
*173 FILLER_12_233
*174 FILLER_12_245
*175 FILLER_12_251
*176 FILLER_12_253
*177 FILLER_12_265
*178 FILLER_12_27
*179 FILLER_12_277
*180 FILLER_12_289
*181 FILLER_12_29
*182 FILLER_12_297
*183 FILLER_12_3
*184 FILLER_12_41
*185 FILLER_12_53
*186 FILLER_12_65
*187 FILLER_12_77
*188 FILLER_12_83
*189 FILLER_12_85
*190 FILLER_12_9
*191 FILLER_12_97
*192 FILLER_13_105
*193 FILLER_13_111
*194 FILLER_13_113
*195 FILLER_13_125
*196 FILLER_13_137
*197 FILLER_13_149
*198 FILLER_13_15
*199 FILLER_13_161
*200 FILLER_13_167
*201 FILLER_13_169
*202 FILLER_13_181
*203 FILLER_13_193
*204 FILLER_13_205
*205 FILLER_13_217
*206 FILLER_13_223
*207 FILLER_13_225
*208 FILLER_13_237
*209 FILLER_13_249
*210 FILLER_13_261
*211 FILLER_13_27
*212 FILLER_13_273
*213 FILLER_13_279
*214 FILLER_13_281
*215 FILLER_13_293
*216 FILLER_13_3
*217 FILLER_13_39
*218 FILLER_13_51
*219 FILLER_13_55
*220 FILLER_13_57
*221 FILLER_13_69
*222 FILLER_13_81
*223 FILLER_13_93
*224 FILLER_14_109
*225 FILLER_14_121
*226 FILLER_14_133
*227 FILLER_14_139
*228 FILLER_14_141
*229 FILLER_14_15
*230 FILLER_14_153
*231 FILLER_14_165
*232 FILLER_14_177
*233 FILLER_14_189
*234 FILLER_14_195
*235 FILLER_14_197
*236 FILLER_14_209
*237 FILLER_14_221
*238 FILLER_14_233
*239 FILLER_14_245
*240 FILLER_14_251
*241 FILLER_14_253
*242 FILLER_14_265
*243 FILLER_14_27
*244 FILLER_14_277
*245 FILLER_14_289
*246 FILLER_14_29
*247 FILLER_14_297
*248 FILLER_14_3
*249 FILLER_14_41
*250 FILLER_14_53
*251 FILLER_14_65
*252 FILLER_14_77
*253 FILLER_14_83
*254 FILLER_14_85
*255 FILLER_14_97
*256 FILLER_15_105
*257 FILLER_15_111
*258 FILLER_15_113
*259 FILLER_15_125
*260 FILLER_15_137
*261 FILLER_15_149
*262 FILLER_15_161
*263 FILLER_15_167
*264 FILLER_15_169
*265 FILLER_15_18
*266 FILLER_15_181
*267 FILLER_15_193
*268 FILLER_15_205
*269 FILLER_15_217
*270 FILLER_15_223
*271 FILLER_15_225
*272 FILLER_15_237
*273 FILLER_15_249
*274 FILLER_15_261
*275 FILLER_15_273
*276 FILLER_15_279
*277 FILLER_15_281
*278 FILLER_15_293
*279 FILLER_15_3
*280 FILLER_15_30
*281 FILLER_15_42
*282 FILLER_15_54
*283 FILLER_15_57
*284 FILLER_15_69
*285 FILLER_15_81
*286 FILLER_15_93
*287 FILLER_16_109
*288 FILLER_16_121
*289 FILLER_16_133
*290 FILLER_16_139
*291 FILLER_16_141
*292 FILLER_16_15
*293 FILLER_16_153
*294 FILLER_16_165
*295 FILLER_16_177
*296 FILLER_16_189
*297 FILLER_16_195
*298 FILLER_16_197
*299 FILLER_16_209
*300 FILLER_16_221
*301 FILLER_16_233
*302 FILLER_16_245
*303 FILLER_16_251
*304 FILLER_16_253
*305 FILLER_16_265
*306 FILLER_16_27
*307 FILLER_16_277
*308 FILLER_16_289
*309 FILLER_16_29
*310 FILLER_16_297
*311 FILLER_16_3
*312 FILLER_16_41
*313 FILLER_16_53
*314 FILLER_16_65
*315 FILLER_16_77
*316 FILLER_16_83
*317 FILLER_16_85
*318 FILLER_16_97
*319 FILLER_17_105
*320 FILLER_17_11
*321 FILLER_17_111
*322 FILLER_17_113
*323 FILLER_17_125
*324 FILLER_17_137
*325 FILLER_17_149
*326 FILLER_17_161
*327 FILLER_17_167
*328 FILLER_17_169
*329 FILLER_17_181
*330 FILLER_17_193
*331 FILLER_17_20
*332 FILLER_17_205
*333 FILLER_17_217
*334 FILLER_17_223
*335 FILLER_17_225
*336 FILLER_17_237
*337 FILLER_17_249
*338 FILLER_17_261
*339 FILLER_17_273
*340 FILLER_17_279
*341 FILLER_17_281
*342 FILLER_17_293
*343 FILLER_17_3
*344 FILLER_17_32
*345 FILLER_17_44
*346 FILLER_17_57
*347 FILLER_17_69
*348 FILLER_17_81
*349 FILLER_17_93
*350 FILLER_18_109
*351 FILLER_18_121
*352 FILLER_18_133
*353 FILLER_18_139
*354 FILLER_18_141
*355 FILLER_18_153
*356 FILLER_18_165
*357 FILLER_18_177
*358 FILLER_18_189
*359 FILLER_18_195
*360 FILLER_18_197
*361 FILLER_18_209
*362 FILLER_18_21
*363 FILLER_18_221
*364 FILLER_18_233
*365 FILLER_18_245
*366 FILLER_18_251
*367 FILLER_18_253
*368 FILLER_18_265
*369 FILLER_18_27
*370 FILLER_18_277
*371 FILLER_18_289
*372 FILLER_18_29
*373 FILLER_18_297
*374 FILLER_18_3
*375 FILLER_18_41
*376 FILLER_18_57
*377 FILLER_18_69
*378 FILLER_18_81
*379 FILLER_18_85
*380 FILLER_18_97
*381 FILLER_19_105
*382 FILLER_19_111
*383 FILLER_19_113
*384 FILLER_19_12
*385 FILLER_19_125
*386 FILLER_19_137
*387 FILLER_19_149
*388 FILLER_19_161
*389 FILLER_19_167
*390 FILLER_19_169
*391 FILLER_19_181
*392 FILLER_19_193
*393 FILLER_19_205
*394 FILLER_19_217
*395 FILLER_19_223
*396 FILLER_19_225
*397 FILLER_19_237
*398 FILLER_19_24
*399 FILLER_19_249
*400 FILLER_19_261
*401 FILLER_19_273
*402 FILLER_19_279
*403 FILLER_19_281
*404 FILLER_19_293
*405 FILLER_19_3
*406 FILLER_19_30
*407 FILLER_19_38
*408 FILLER_19_50
*409 FILLER_19_57
*410 FILLER_19_69
*411 FILLER_19_81
*412 FILLER_19_93
*413 FILLER_1_105
*414 FILLER_1_111
*415 FILLER_1_113
*416 FILLER_1_125
*417 FILLER_1_137
*418 FILLER_1_149
*419 FILLER_1_15
*420 FILLER_1_161
*421 FILLER_1_167
*422 FILLER_1_169
*423 FILLER_1_181
*424 FILLER_1_193
*425 FILLER_1_205
*426 FILLER_1_217
*427 FILLER_1_223
*428 FILLER_1_225
*429 FILLER_1_237
*430 FILLER_1_249
*431 FILLER_1_261
*432 FILLER_1_27
*433 FILLER_1_273
*434 FILLER_1_279
*435 FILLER_1_281
*436 FILLER_1_293
*437 FILLER_1_3
*438 FILLER_1_39
*439 FILLER_1_51
*440 FILLER_1_55
*441 FILLER_1_57
*442 FILLER_1_69
*443 FILLER_1_81
*444 FILLER_1_93
*445 FILLER_20_109
*446 FILLER_20_121
*447 FILLER_20_133
*448 FILLER_20_139
*449 FILLER_20_141
*450 FILLER_20_15
*451 FILLER_20_153
*452 FILLER_20_165
*453 FILLER_20_177
*454 FILLER_20_189
*455 FILLER_20_195
*456 FILLER_20_197
*457 FILLER_20_209
*458 FILLER_20_221
*459 FILLER_20_233
*460 FILLER_20_245
*461 FILLER_20_251
*462 FILLER_20_253
*463 FILLER_20_265
*464 FILLER_20_27
*465 FILLER_20_277
*466 FILLER_20_289
*467 FILLER_20_29
*468 FILLER_20_297
*469 FILLER_20_3
*470 FILLER_20_41
*471 FILLER_20_53
*472 FILLER_20_65
*473 FILLER_20_77
*474 FILLER_20_83
*475 FILLER_20_85
*476 FILLER_20_97
*477 FILLER_21_105
*478 FILLER_21_111
*479 FILLER_21_113
*480 FILLER_21_12
*481 FILLER_21_125
*482 FILLER_21_137
*483 FILLER_21_149
*484 FILLER_21_161
*485 FILLER_21_167
*486 FILLER_21_169
*487 FILLER_21_181
*488 FILLER_21_193
*489 FILLER_21_205
*490 FILLER_21_217
*491 FILLER_21_223
*492 FILLER_21_225
*493 FILLER_21_237
*494 FILLER_21_24
*495 FILLER_21_249
*496 FILLER_21_261
*497 FILLER_21_273
*498 FILLER_21_279
*499 FILLER_21_281
*500 FILLER_21_293
*501 FILLER_21_3
*502 FILLER_21_36
*503 FILLER_21_48
*504 FILLER_21_57
*505 FILLER_21_69
*506 FILLER_21_81
*507 FILLER_21_93
*508 FILLER_22_109
*509 FILLER_22_12
*510 FILLER_22_121
*511 FILLER_22_133
*512 FILLER_22_139
*513 FILLER_22_141
*514 FILLER_22_153
*515 FILLER_22_165
*516 FILLER_22_177
*517 FILLER_22_189
*518 FILLER_22_195
*519 FILLER_22_197
*520 FILLER_22_209
*521 FILLER_22_221
*522 FILLER_22_233
*523 FILLER_22_24
*524 FILLER_22_245
*525 FILLER_22_251
*526 FILLER_22_253
*527 FILLER_22_265
*528 FILLER_22_277
*529 FILLER_22_289
*530 FILLER_22_29
*531 FILLER_22_297
*532 FILLER_22_3
*533 FILLER_22_41
*534 FILLER_22_53
*535 FILLER_22_65
*536 FILLER_22_77
*537 FILLER_22_83
*538 FILLER_22_85
*539 FILLER_22_97
*540 FILLER_23_105
*541 FILLER_23_111
*542 FILLER_23_113
*543 FILLER_23_125
*544 FILLER_23_137
*545 FILLER_23_149
*546 FILLER_23_15
*547 FILLER_23_161
*548 FILLER_23_167
*549 FILLER_23_169
*550 FILLER_23_181
*551 FILLER_23_193
*552 FILLER_23_205
*553 FILLER_23_217
*554 FILLER_23_223
*555 FILLER_23_225
*556 FILLER_23_237
*557 FILLER_23_249
*558 FILLER_23_261
*559 FILLER_23_27
*560 FILLER_23_273
*561 FILLER_23_279
*562 FILLER_23_281
*563 FILLER_23_293
*564 FILLER_23_3
*565 FILLER_23_39
*566 FILLER_23_51
*567 FILLER_23_55
*568 FILLER_23_57
*569 FILLER_23_69
*570 FILLER_23_81
*571 FILLER_23_93
*572 FILLER_24_109
*573 FILLER_24_121
*574 FILLER_24_133
*575 FILLER_24_139
*576 FILLER_24_141
*577 FILLER_24_15
*578 FILLER_24_153
*579 FILLER_24_165
*580 FILLER_24_177
*581 FILLER_24_189
*582 FILLER_24_195
*583 FILLER_24_197
*584 FILLER_24_209
*585 FILLER_24_221
*586 FILLER_24_233
*587 FILLER_24_245
*588 FILLER_24_251
*589 FILLER_24_253
*590 FILLER_24_265
*591 FILLER_24_27
*592 FILLER_24_277
*593 FILLER_24_289
*594 FILLER_24_29
*595 FILLER_24_297
*596 FILLER_24_3
*597 FILLER_24_41
*598 FILLER_24_53
*599 FILLER_24_65
*600 FILLER_24_77
*601 FILLER_24_83
*602 FILLER_24_85
*603 FILLER_24_97
*604 FILLER_25_105
*605 FILLER_25_111
*606 FILLER_25_113
*607 FILLER_25_125
*608 FILLER_25_137
*609 FILLER_25_149
*610 FILLER_25_15
*611 FILLER_25_161
*612 FILLER_25_167
*613 FILLER_25_169
*614 FILLER_25_181
*615 FILLER_25_193
*616 FILLER_25_205
*617 FILLER_25_217
*618 FILLER_25_223
*619 FILLER_25_225
*620 FILLER_25_237
*621 FILLER_25_249
*622 FILLER_25_261
*623 FILLER_25_27
*624 FILLER_25_273
*625 FILLER_25_279
*626 FILLER_25_281
*627 FILLER_25_293
*628 FILLER_25_3
*629 FILLER_25_39
*630 FILLER_25_51
*631 FILLER_25_55
*632 FILLER_25_57
*633 FILLER_25_69
*634 FILLER_25_81
*635 FILLER_25_93
*636 FILLER_26_109
*637 FILLER_26_121
*638 FILLER_26_133
*639 FILLER_26_139
*640 FILLER_26_141
*641 FILLER_26_153
*642 FILLER_26_165
*643 FILLER_26_177
*644 FILLER_26_189
*645 FILLER_26_195
*646 FILLER_26_197
*647 FILLER_26_209
*648 FILLER_26_21
*649 FILLER_26_221
*650 FILLER_26_233
*651 FILLER_26_245
*652 FILLER_26_251
*653 FILLER_26_253
*654 FILLER_26_265
*655 FILLER_26_27
*656 FILLER_26_277
*657 FILLER_26_289
*658 FILLER_26_29
*659 FILLER_26_297
*660 FILLER_26_3
*661 FILLER_26_41
*662 FILLER_26_53
*663 FILLER_26_65
*664 FILLER_26_77
*665 FILLER_26_83
*666 FILLER_26_85
*667 FILLER_26_9
*668 FILLER_26_97
*669 FILLER_27_105
*670 FILLER_27_111
*671 FILLER_27_113
*672 FILLER_27_125
*673 FILLER_27_137
*674 FILLER_27_149
*675 FILLER_27_161
*676 FILLER_27_167
*677 FILLER_27_169
*678 FILLER_27_181
*679 FILLER_27_193
*680 FILLER_27_205
*681 FILLER_27_217
*682 FILLER_27_223
*683 FILLER_27_225
*684 FILLER_27_237
*685 FILLER_27_249
*686 FILLER_27_25
*687 FILLER_27_261
*688 FILLER_27_273
*689 FILLER_27_279
*690 FILLER_27_281
*691 FILLER_27_293
*692 FILLER_27_3
*693 FILLER_27_37
*694 FILLER_27_49
*695 FILLER_27_55
*696 FILLER_27_57
*697 FILLER_27_69
*698 FILLER_27_81
*699 FILLER_27_93
*700 FILLER_28_109
*701 FILLER_28_121
*702 FILLER_28_133
*703 FILLER_28_139
*704 FILLER_28_141
*705 FILLER_28_153
*706 FILLER_28_165
*707 FILLER_28_177
*708 FILLER_28_18
*709 FILLER_28_189
*710 FILLER_28_195
*711 FILLER_28_197
*712 FILLER_28_209
*713 FILLER_28_221
*714 FILLER_28_233
*715 FILLER_28_245
*716 FILLER_28_251
*717 FILLER_28_253
*718 FILLER_28_26
*719 FILLER_28_265
*720 FILLER_28_277
*721 FILLER_28_289
*722 FILLER_28_29
*723 FILLER_28_297
*724 FILLER_28_3
*725 FILLER_28_41
*726 FILLER_28_53
*727 FILLER_28_65
*728 FILLER_28_77
*729 FILLER_28_83
*730 FILLER_28_85
*731 FILLER_28_97
*732 FILLER_29_105
*733 FILLER_29_111
*734 FILLER_29_113
*735 FILLER_29_125
*736 FILLER_29_137
*737 FILLER_29_149
*738 FILLER_29_15
*739 FILLER_29_161
*740 FILLER_29_167
*741 FILLER_29_169
*742 FILLER_29_181
*743 FILLER_29_193
*744 FILLER_29_205
*745 FILLER_29_217
*746 FILLER_29_223
*747 FILLER_29_225
*748 FILLER_29_237
*749 FILLER_29_249
*750 FILLER_29_261
*751 FILLER_29_273
*752 FILLER_29_279
*753 FILLER_29_281
*754 FILLER_29_293
*755 FILLER_29_3
*756 FILLER_29_36
*757 FILLER_29_48
*758 FILLER_29_57
*759 FILLER_29_69
*760 FILLER_29_81
*761 FILLER_29_93
*762 FILLER_2_109
*763 FILLER_2_121
*764 FILLER_2_133
*765 FILLER_2_139
*766 FILLER_2_141
*767 FILLER_2_15
*768 FILLER_2_153
*769 FILLER_2_165
*770 FILLER_2_177
*771 FILLER_2_189
*772 FILLER_2_195
*773 FILLER_2_197
*774 FILLER_2_209
*775 FILLER_2_221
*776 FILLER_2_233
*777 FILLER_2_245
*778 FILLER_2_251
*779 FILLER_2_253
*780 FILLER_2_265
*781 FILLER_2_27
*782 FILLER_2_277
*783 FILLER_2_289
*784 FILLER_2_29
*785 FILLER_2_297
*786 FILLER_2_3
*787 FILLER_2_41
*788 FILLER_2_53
*789 FILLER_2_65
*790 FILLER_2_77
*791 FILLER_2_83
*792 FILLER_2_85
*793 FILLER_2_97
*794 FILLER_30_109
*795 FILLER_30_121
*796 FILLER_30_133
*797 FILLER_30_139
*798 FILLER_30_141
*799 FILLER_30_153
*800 FILLER_30_165
*801 FILLER_30_177
*802 FILLER_30_189
*803 FILLER_30_195
*804 FILLER_30_197
*805 FILLER_30_209
*806 FILLER_30_221
*807 FILLER_30_233
*808 FILLER_30_245
*809 FILLER_30_25
*810 FILLER_30_251
*811 FILLER_30_253
*812 FILLER_30_265
*813 FILLER_30_277
*814 FILLER_30_289
*815 FILLER_30_29
*816 FILLER_30_297
*817 FILLER_30_3
*818 FILLER_30_41
*819 FILLER_30_53
*820 FILLER_30_65
*821 FILLER_30_77
*822 FILLER_30_83
*823 FILLER_30_85
*824 FILLER_30_97
*825 FILLER_31_105
*826 FILLER_31_111
*827 FILLER_31_113
*828 FILLER_31_125
*829 FILLER_31_137
*830 FILLER_31_149
*831 FILLER_31_15
*832 FILLER_31_161
*833 FILLER_31_167
*834 FILLER_31_169
*835 FILLER_31_181
*836 FILLER_31_193
*837 FILLER_31_205
*838 FILLER_31_217
*839 FILLER_31_223
*840 FILLER_31_225
*841 FILLER_31_237
*842 FILLER_31_249
*843 FILLER_31_261
*844 FILLER_31_273
*845 FILLER_31_279
*846 FILLER_31_281
*847 FILLER_31_293
*848 FILLER_31_3
*849 FILLER_31_36
*850 FILLER_31_48
*851 FILLER_31_57
*852 FILLER_31_69
*853 FILLER_31_81
*854 FILLER_31_93
*855 FILLER_32_109
*856 FILLER_32_121
*857 FILLER_32_133
*858 FILLER_32_139
*859 FILLER_32_141
*860 FILLER_32_153
*861 FILLER_32_165
*862 FILLER_32_177
*863 FILLER_32_189
*864 FILLER_32_195
*865 FILLER_32_197
*866 FILLER_32_209
*867 FILLER_32_221
*868 FILLER_32_233
*869 FILLER_32_245
*870 FILLER_32_25
*871 FILLER_32_251
*872 FILLER_32_253
*873 FILLER_32_265
*874 FILLER_32_277
*875 FILLER_32_289
*876 FILLER_32_29
*877 FILLER_32_297
*878 FILLER_32_3
*879 FILLER_32_44
*880 FILLER_32_56
*881 FILLER_32_68
*882 FILLER_32_80
*883 FILLER_32_85
*884 FILLER_32_97
*885 FILLER_33_105
*886 FILLER_33_111
*887 FILLER_33_113
*888 FILLER_33_12
*889 FILLER_33_125
*890 FILLER_33_137
*891 FILLER_33_149
*892 FILLER_33_161
*893 FILLER_33_167
*894 FILLER_33_169
*895 FILLER_33_181
*896 FILLER_33_193
*897 FILLER_33_205
*898 FILLER_33_217
*899 FILLER_33_223
*900 FILLER_33_225
*901 FILLER_33_237
*902 FILLER_33_249
*903 FILLER_33_261
*904 FILLER_33_273
*905 FILLER_33_279
*906 FILLER_33_281
*907 FILLER_33_293
*908 FILLER_33_3
*909 FILLER_33_36
*910 FILLER_33_53
*911 FILLER_33_57
*912 FILLER_33_69
*913 FILLER_33_81
*914 FILLER_33_93
*915 FILLER_34_109
*916 FILLER_34_121
*917 FILLER_34_133
*918 FILLER_34_139
*919 FILLER_34_141
*920 FILLER_34_153
*921 FILLER_34_165
*922 FILLER_34_177
*923 FILLER_34_189
*924 FILLER_34_195
*925 FILLER_34_197
*926 FILLER_34_209
*927 FILLER_34_221
*928 FILLER_34_233
*929 FILLER_34_245
*930 FILLER_34_251
*931 FILLER_34_253
*932 FILLER_34_26
*933 FILLER_34_265
*934 FILLER_34_277
*935 FILLER_34_289
*936 FILLER_34_29
*937 FILLER_34_297
*938 FILLER_34_3
*939 FILLER_34_51
*940 FILLER_34_63
*941 FILLER_34_75
*942 FILLER_34_83
*943 FILLER_34_85
*944 FILLER_34_97
*945 FILLER_35_105
*946 FILLER_35_11
*947 FILLER_35_111
*948 FILLER_35_113
*949 FILLER_35_125
*950 FILLER_35_137
*951 FILLER_35_149
*952 FILLER_35_161
*953 FILLER_35_167
*954 FILLER_35_169
*955 FILLER_35_181
*956 FILLER_35_193
*957 FILLER_35_205
*958 FILLER_35_217
*959 FILLER_35_223
*960 FILLER_35_225
*961 FILLER_35_237
*962 FILLER_35_249
*963 FILLER_35_261
*964 FILLER_35_273
*965 FILLER_35_279
*966 FILLER_35_281
*967 FILLER_35_293
*968 FILLER_35_3
*969 FILLER_35_33
*970 FILLER_35_50
*971 FILLER_35_57
*972 FILLER_35_69
*973 FILLER_35_81
*974 FILLER_35_93
*975 FILLER_36_109
*976 FILLER_36_121
*977 FILLER_36_133
*978 FILLER_36_139
*979 FILLER_36_141
*980 FILLER_36_153
*981 FILLER_36_165
*982 FILLER_36_177
*983 FILLER_36_189
*984 FILLER_36_195
*985 FILLER_36_197
*986 FILLER_36_209
*987 FILLER_36_221
*988 FILLER_36_233
*989 FILLER_36_245
*990 FILLER_36_251
*991 FILLER_36_253
*992 FILLER_36_26
*993 FILLER_36_265
*994 FILLER_36_277
*995 FILLER_36_289
*996 FILLER_36_29
*997 FILLER_36_297
*998 FILLER_36_3
*999 FILLER_36_51
*1000 FILLER_36_62
*1001 FILLER_36_74
*1002 FILLER_36_82
*1003 FILLER_36_85
*1004 FILLER_36_97
*1005 FILLER_37_105
*1006 FILLER_37_111
*1007 FILLER_37_113
*1008 FILLER_37_125
*1009 FILLER_37_137
*1010 FILLER_37_149
*1011 FILLER_37_15
*1012 FILLER_37_161
*1013 FILLER_37_167
*1014 FILLER_37_169
*1015 FILLER_37_181
*1016 FILLER_37_193
*1017 FILLER_37_205
*1018 FILLER_37_217
*1019 FILLER_37_223
*1020 FILLER_37_225
*1021 FILLER_37_237
*1022 FILLER_37_249
*1023 FILLER_37_261
*1024 FILLER_37_273
*1025 FILLER_37_279
*1026 FILLER_37_281
*1027 FILLER_37_293
*1028 FILLER_37_3
*1029 FILLER_37_41
*1030 FILLER_37_53
*1031 FILLER_37_57
*1032 FILLER_37_69
*1033 FILLER_37_81
*1034 FILLER_37_93
*1035 FILLER_38_109
*1036 FILLER_38_121
*1037 FILLER_38_133
*1038 FILLER_38_139
*1039 FILLER_38_141
*1040 FILLER_38_153
*1041 FILLER_38_165
*1042 FILLER_38_177
*1043 FILLER_38_189
*1044 FILLER_38_195
*1045 FILLER_38_197
*1046 FILLER_38_209
*1047 FILLER_38_221
*1048 FILLER_38_233
*1049 FILLER_38_245
*1050 FILLER_38_25
*1051 FILLER_38_251
*1052 FILLER_38_253
*1053 FILLER_38_265
*1054 FILLER_38_277
*1055 FILLER_38_289
*1056 FILLER_38_29
*1057 FILLER_38_297
*1058 FILLER_38_3
*1059 FILLER_38_51
*1060 FILLER_38_60
*1061 FILLER_38_72
*1062 FILLER_38_85
*1063 FILLER_38_97
*1064 FILLER_39_105
*1065 FILLER_39_11
*1066 FILLER_39_111
*1067 FILLER_39_113
*1068 FILLER_39_125
*1069 FILLER_39_137
*1070 FILLER_39_149
*1071 FILLER_39_161
*1072 FILLER_39_167
*1073 FILLER_39_169
*1074 FILLER_39_181
*1075 FILLER_39_193
*1076 FILLER_39_205
*1077 FILLER_39_217
*1078 FILLER_39_223
*1079 FILLER_39_225
*1080 FILLER_39_237
*1081 FILLER_39_249
*1082 FILLER_39_261
*1083 FILLER_39_273
*1084 FILLER_39_279
*1085 FILLER_39_281
*1086 FILLER_39_293
*1087 FILLER_39_3
*1088 FILLER_39_32
*1089 FILLER_39_49
*1090 FILLER_39_55
*1091 FILLER_39_57
*1092 FILLER_39_69
*1093 FILLER_39_81
*1094 FILLER_39_93
*1095 FILLER_3_105
*1096 FILLER_3_111
*1097 FILLER_3_113
*1098 FILLER_3_125
*1099 FILLER_3_137
*1100 FILLER_3_149
*1101 FILLER_3_15
*1102 FILLER_3_161
*1103 FILLER_3_167
*1104 FILLER_3_169
*1105 FILLER_3_181
*1106 FILLER_3_193
*1107 FILLER_3_205
*1108 FILLER_3_217
*1109 FILLER_3_223
*1110 FILLER_3_225
*1111 FILLER_3_237
*1112 FILLER_3_249
*1113 FILLER_3_261
*1114 FILLER_3_27
*1115 FILLER_3_273
*1116 FILLER_3_279
*1117 FILLER_3_281
*1118 FILLER_3_293
*1119 FILLER_3_3
*1120 FILLER_3_39
*1121 FILLER_3_51
*1122 FILLER_3_55
*1123 FILLER_3_57
*1124 FILLER_3_69
*1125 FILLER_3_81
*1126 FILLER_3_93
*1127 FILLER_40_109
*1128 FILLER_40_121
*1129 FILLER_40_133
*1130 FILLER_40_139
*1131 FILLER_40_141
*1132 FILLER_40_153
*1133 FILLER_40_165
*1134 FILLER_40_177
*1135 FILLER_40_189
*1136 FILLER_40_195
*1137 FILLER_40_197
*1138 FILLER_40_209
*1139 FILLER_40_221
*1140 FILLER_40_233
*1141 FILLER_40_245
*1142 FILLER_40_25
*1143 FILLER_40_251
*1144 FILLER_40_253
*1145 FILLER_40_265
*1146 FILLER_40_277
*1147 FILLER_40_289
*1148 FILLER_40_29
*1149 FILLER_40_297
*1150 FILLER_40_3
*1151 FILLER_40_39
*1152 FILLER_40_51
*1153 FILLER_40_63
*1154 FILLER_40_75
*1155 FILLER_40_83
*1156 FILLER_40_85
*1157 FILLER_40_97
*1158 FILLER_41_105
*1159 FILLER_41_111
*1160 FILLER_41_113
*1161 FILLER_41_125
*1162 FILLER_41_137
*1163 FILLER_41_149
*1164 FILLER_41_161
*1165 FILLER_41_167
*1166 FILLER_41_169
*1167 FILLER_41_181
*1168 FILLER_41_193
*1169 FILLER_41_205
*1170 FILLER_41_217
*1171 FILLER_41_223
*1172 FILLER_41_225
*1173 FILLER_41_237
*1174 FILLER_41_249
*1175 FILLER_41_261
*1176 FILLER_41_273
*1177 FILLER_41_279
*1178 FILLER_41_281
*1179 FILLER_41_29
*1180 FILLER_41_293
*1181 FILLER_41_3
*1182 FILLER_41_39
*1183 FILLER_41_51
*1184 FILLER_41_55
*1185 FILLER_41_57
*1186 FILLER_41_69
*1187 FILLER_41_81
*1188 FILLER_41_93
*1189 FILLER_42_109
*1190 FILLER_42_121
*1191 FILLER_42_133
*1192 FILLER_42_139
*1193 FILLER_42_141
*1194 FILLER_42_153
*1195 FILLER_42_165
*1196 FILLER_42_177
*1197 FILLER_42_189
*1198 FILLER_42_195
*1199 FILLER_42_197
*1200 FILLER_42_209
*1201 FILLER_42_221
*1202 FILLER_42_233
*1203 FILLER_42_245
*1204 FILLER_42_25
*1205 FILLER_42_251
*1206 FILLER_42_253
*1207 FILLER_42_265
*1208 FILLER_42_277
*1209 FILLER_42_289
*1210 FILLER_42_29
*1211 FILLER_42_297
*1212 FILLER_42_3
*1213 FILLER_42_41
*1214 FILLER_42_53
*1215 FILLER_42_65
*1216 FILLER_42_77
*1217 FILLER_42_83
*1218 FILLER_42_85
*1219 FILLER_42_97
*1220 FILLER_43_105
*1221 FILLER_43_111
*1222 FILLER_43_113
*1223 FILLER_43_125
*1224 FILLER_43_13
*1225 FILLER_43_137
*1226 FILLER_43_149
*1227 FILLER_43_161
*1228 FILLER_43_167
*1229 FILLER_43_169
*1230 FILLER_43_181
*1231 FILLER_43_193
*1232 FILLER_43_205
*1233 FILLER_43_217
*1234 FILLER_43_22
*1235 FILLER_43_223
*1236 FILLER_43_225
*1237 FILLER_43_237
*1238 FILLER_43_249
*1239 FILLER_43_261
*1240 FILLER_43_273
*1241 FILLER_43_279
*1242 FILLER_43_281
*1243 FILLER_43_293
*1244 FILLER_43_3
*1245 FILLER_43_34
*1246 FILLER_43_46
*1247 FILLER_43_54
*1248 FILLER_43_57
*1249 FILLER_43_69
*1250 FILLER_43_81
*1251 FILLER_43_93
*1252 FILLER_44_10
*1253 FILLER_44_109
*1254 FILLER_44_121
*1255 FILLER_44_133
*1256 FILLER_44_139
*1257 FILLER_44_141
*1258 FILLER_44_153
*1259 FILLER_44_165
*1260 FILLER_44_177
*1261 FILLER_44_189
*1262 FILLER_44_195
*1263 FILLER_44_197
*1264 FILLER_44_209
*1265 FILLER_44_22
*1266 FILLER_44_221
*1267 FILLER_44_233
*1268 FILLER_44_245
*1269 FILLER_44_251
*1270 FILLER_44_253
*1271 FILLER_44_265
*1272 FILLER_44_277
*1273 FILLER_44_289
*1274 FILLER_44_29
*1275 FILLER_44_297
*1276 FILLER_44_3
*1277 FILLER_44_41
*1278 FILLER_44_53
*1279 FILLER_44_65
*1280 FILLER_44_77
*1281 FILLER_44_83
*1282 FILLER_44_85
*1283 FILLER_44_97
*1284 FILLER_45_105
*1285 FILLER_45_111
*1286 FILLER_45_113
*1287 FILLER_45_125
*1288 FILLER_45_137
*1289 FILLER_45_149
*1290 FILLER_45_15
*1291 FILLER_45_161
*1292 FILLER_45_167
*1293 FILLER_45_169
*1294 FILLER_45_181
*1295 FILLER_45_193
*1296 FILLER_45_205
*1297 FILLER_45_217
*1298 FILLER_45_223
*1299 FILLER_45_225
*1300 FILLER_45_237
*1301 FILLER_45_249
*1302 FILLER_45_261
*1303 FILLER_45_27
*1304 FILLER_45_273
*1305 FILLER_45_279
*1306 FILLER_45_281
*1307 FILLER_45_293
*1308 FILLER_45_3
*1309 FILLER_45_39
*1310 FILLER_45_51
*1311 FILLER_45_55
*1312 FILLER_45_57
*1313 FILLER_45_69
*1314 FILLER_45_81
*1315 FILLER_45_93
*1316 FILLER_46_109
*1317 FILLER_46_121
*1318 FILLER_46_133
*1319 FILLER_46_139
*1320 FILLER_46_141
*1321 FILLER_46_153
*1322 FILLER_46_165
*1323 FILLER_46_177
*1324 FILLER_46_189
*1325 FILLER_46_195
*1326 FILLER_46_197
*1327 FILLER_46_20
*1328 FILLER_46_209
*1329 FILLER_46_221
*1330 FILLER_46_233
*1331 FILLER_46_245
*1332 FILLER_46_251
*1333 FILLER_46_253
*1334 FILLER_46_265
*1335 FILLER_46_277
*1336 FILLER_46_289
*1337 FILLER_46_29
*1338 FILLER_46_297
*1339 FILLER_46_3
*1340 FILLER_46_41
*1341 FILLER_46_53
*1342 FILLER_46_65
*1343 FILLER_46_77
*1344 FILLER_46_8
*1345 FILLER_46_83
*1346 FILLER_46_85
*1347 FILLER_46_97
*1348 FILLER_47_105
*1349 FILLER_47_111
*1350 FILLER_47_113
*1351 FILLER_47_125
*1352 FILLER_47_137
*1353 FILLER_47_149
*1354 FILLER_47_15
*1355 FILLER_47_161
*1356 FILLER_47_167
*1357 FILLER_47_169
*1358 FILLER_47_181
*1359 FILLER_47_193
*1360 FILLER_47_205
*1361 FILLER_47_217
*1362 FILLER_47_223
*1363 FILLER_47_225
*1364 FILLER_47_237
*1365 FILLER_47_249
*1366 FILLER_47_261
*1367 FILLER_47_27
*1368 FILLER_47_273
*1369 FILLER_47_279
*1370 FILLER_47_281
*1371 FILLER_47_293
*1372 FILLER_47_3
*1373 FILLER_47_39
*1374 FILLER_47_51
*1375 FILLER_47_55
*1376 FILLER_47_57
*1377 FILLER_47_69
*1378 FILLER_47_81
*1379 FILLER_47_93
*1380 FILLER_48_109
*1381 FILLER_48_121
*1382 FILLER_48_133
*1383 FILLER_48_139
*1384 FILLER_48_141
*1385 FILLER_48_15
*1386 FILLER_48_153
*1387 FILLER_48_165
*1388 FILLER_48_177
*1389 FILLER_48_189
*1390 FILLER_48_195
*1391 FILLER_48_197
*1392 FILLER_48_209
*1393 FILLER_48_221
*1394 FILLER_48_233
*1395 FILLER_48_245
*1396 FILLER_48_251
*1397 FILLER_48_253
*1398 FILLER_48_265
*1399 FILLER_48_27
*1400 FILLER_48_277
*1401 FILLER_48_289
*1402 FILLER_48_29
*1403 FILLER_48_297
*1404 FILLER_48_3
*1405 FILLER_48_41
*1406 FILLER_48_53
*1407 FILLER_48_65
*1408 FILLER_48_77
*1409 FILLER_48_83
*1410 FILLER_48_85
*1411 FILLER_48_97
*1412 FILLER_49_105
*1413 FILLER_49_111
*1414 FILLER_49_113
*1415 FILLER_49_125
*1416 FILLER_49_137
*1417 FILLER_49_149
*1418 FILLER_49_15
*1419 FILLER_49_161
*1420 FILLER_49_167
*1421 FILLER_49_169
*1422 FILLER_49_181
*1423 FILLER_49_193
*1424 FILLER_49_205
*1425 FILLER_49_217
*1426 FILLER_49_223
*1427 FILLER_49_225
*1428 FILLER_49_237
*1429 FILLER_49_249
*1430 FILLER_49_261
*1431 FILLER_49_27
*1432 FILLER_49_273
*1433 FILLER_49_279
*1434 FILLER_49_281
*1435 FILLER_49_293
*1436 FILLER_49_3
*1437 FILLER_49_39
*1438 FILLER_49_51
*1439 FILLER_49_55
*1440 FILLER_49_57
*1441 FILLER_49_69
*1442 FILLER_49_81
*1443 FILLER_49_93
*1444 FILLER_4_109
*1445 FILLER_4_121
*1446 FILLER_4_133
*1447 FILLER_4_139
*1448 FILLER_4_141
*1449 FILLER_4_15
*1450 FILLER_4_153
*1451 FILLER_4_165
*1452 FILLER_4_177
*1453 FILLER_4_189
*1454 FILLER_4_195
*1455 FILLER_4_197
*1456 FILLER_4_209
*1457 FILLER_4_221
*1458 FILLER_4_233
*1459 FILLER_4_245
*1460 FILLER_4_251
*1461 FILLER_4_253
*1462 FILLER_4_265
*1463 FILLER_4_27
*1464 FILLER_4_277
*1465 FILLER_4_289
*1466 FILLER_4_29
*1467 FILLER_4_297
*1468 FILLER_4_3
*1469 FILLER_4_41
*1470 FILLER_4_53
*1471 FILLER_4_65
*1472 FILLER_4_77
*1473 FILLER_4_83
*1474 FILLER_4_85
*1475 FILLER_4_97
*1476 FILLER_50_109
*1477 FILLER_50_121
*1478 FILLER_50_133
*1479 FILLER_50_139
*1480 FILLER_50_141
*1481 FILLER_50_153
*1482 FILLER_50_165
*1483 FILLER_50_177
*1484 FILLER_50_189
*1485 FILLER_50_195
*1486 FILLER_50_197
*1487 FILLER_50_20
*1488 FILLER_50_209
*1489 FILLER_50_221
*1490 FILLER_50_233
*1491 FILLER_50_245
*1492 FILLER_50_251
*1493 FILLER_50_253
*1494 FILLER_50_265
*1495 FILLER_50_277
*1496 FILLER_50_289
*1497 FILLER_50_29
*1498 FILLER_50_297
*1499 FILLER_50_3
*1500 FILLER_50_41
*1501 FILLER_50_53
*1502 FILLER_50_65
*1503 FILLER_50_77
*1504 FILLER_50_8
*1505 FILLER_50_83
*1506 FILLER_50_85
*1507 FILLER_50_97
*1508 FILLER_51_105
*1509 FILLER_51_111
*1510 FILLER_51_113
*1511 FILLER_51_125
*1512 FILLER_51_137
*1513 FILLER_51_149
*1514 FILLER_51_15
*1515 FILLER_51_161
*1516 FILLER_51_167
*1517 FILLER_51_169
*1518 FILLER_51_181
*1519 FILLER_51_193
*1520 FILLER_51_205
*1521 FILLER_51_217
*1522 FILLER_51_223
*1523 FILLER_51_225
*1524 FILLER_51_237
*1525 FILLER_51_249
*1526 FILLER_51_261
*1527 FILLER_51_27
*1528 FILLER_51_273
*1529 FILLER_51_279
*1530 FILLER_51_281
*1531 FILLER_51_293
*1532 FILLER_51_3
*1533 FILLER_51_39
*1534 FILLER_51_51
*1535 FILLER_51_55
*1536 FILLER_51_57
*1537 FILLER_51_69
*1538 FILLER_51_81
*1539 FILLER_51_93
*1540 FILLER_52_109
*1541 FILLER_52_121
*1542 FILLER_52_133
*1543 FILLER_52_139
*1544 FILLER_52_141
*1545 FILLER_52_15
*1546 FILLER_52_153
*1547 FILLER_52_165
*1548 FILLER_52_177
*1549 FILLER_52_189
*1550 FILLER_52_195
*1551 FILLER_52_197
*1552 FILLER_52_209
*1553 FILLER_52_221
*1554 FILLER_52_233
*1555 FILLER_52_245
*1556 FILLER_52_251
*1557 FILLER_52_253
*1558 FILLER_52_265
*1559 FILLER_52_27
*1560 FILLER_52_277
*1561 FILLER_52_289
*1562 FILLER_52_29
*1563 FILLER_52_297
*1564 FILLER_52_3
*1565 FILLER_52_41
*1566 FILLER_52_53
*1567 FILLER_52_65
*1568 FILLER_52_77
*1569 FILLER_52_83
*1570 FILLER_52_85
*1571 FILLER_52_97
*1572 FILLER_53_105
*1573 FILLER_53_111
*1574 FILLER_53_113
*1575 FILLER_53_125
*1576 FILLER_53_137
*1577 FILLER_53_149
*1578 FILLER_53_15
*1579 FILLER_53_161
*1580 FILLER_53_167
*1581 FILLER_53_169
*1582 FILLER_53_181
*1583 FILLER_53_193
*1584 FILLER_53_205
*1585 FILLER_53_217
*1586 FILLER_53_223