*SPEF "ieee 1481-1999"
*DESIGN "granth_crc_decelerator"
*DATE "11:11:11 Fri 11 11, 1111"
*VENDOR "OpenRCX"
*PROGRAM "Parallel Extraction"
*VERSION "1.0"
*DESIGN_FLOW "NAME_SCOPE LOCAL" "PIN_CAP NONE"
*DIVIDER /
*DELIMITER :
*BUS_DELIMITER []
*T_UNIT 1 NS
*C_UNIT 1 PF
*R_UNIT 1 OHM
*L_UNIT 1 HENRY

*NAME_MAP
*1 io_in[0]
*2 io_in[1]
*3 io_in[2]
*4 io_in[3]
*5 io_in[4]
*6 io_in[5]
*7 io_in[6]
*8 io_in[7]
*9 io_out[0]
*10 io_out[1]
*11 io_out[2]
*12 io_out[3]
*13 io_out[4]
*14 io_out[5]
*15 io_out[6]
*16 io_out[7]
*19 _0000_
*20 _0001_
*21 _0002_
*22 _0003_
*23 _0004_
*24 _0005_
*25 _0006_
*26 _0007_
*27 _0008_
*28 _0009_
*29 _0010_
*30 _0011_
*31 _0012_
*32 _0013_
*33 _0014_
*34 _0015_
*35 _0016_
*36 _0017_
*37 _0018_
*38 _0019_
*39 _0020_
*40 _0021_
*41 _0022_
*42 _0023_
*43 _0024_
*44 _0025_
*45 _0026_
*46 _0027_
*47 _0028_
*48 _0029_
*49 _0030_
*50 _0031_
*51 _0032_
*52 _0033_
*53 _0034_
*54 _0035_
*55 _0036_
*56 _0037_
*57 _0038_
*58 _0039_
*59 _0040_
*60 _0041_
*61 _0042_
*62 _0043_
*63 _0044_
*64 _0045_
*65 _0046_
*66 _0047_
*67 _0048_
*68 _0049_
*69 _0050_
*70 _0051_
*71 _0052_
*72 _0053_
*73 _0054_
*74 _0055_
*75 _0056_
*76 _0057_
*77 _0058_
*78 _0059_
*79 _0060_
*80 _0061_
*81 _0062_
*82 _0063_
*83 _0064_
*84 _0065_
*85 _0066_
*86 _0067_
*87 _0068_
*88 _0069_
*89 _0070_
*90 _0071_
*91 _0072_
*92 _0073_
*93 _0074_
*94 _0075_
*95 _0076_
*96 _0077_
*97 _0078_
*98 _0079_
*99 _0080_
*100 _0081_
*101 _0082_
*102 _0083_
*103 _0084_
*104 _0085_
*105 _0086_
*106 _0087_
*107 _0088_
*108 _0089_
*109 _0090_
*110 _0091_
*111 _0092_
*112 _0093_
*113 _0094_
*114 _0095_
*115 _0096_
*116 _0097_
*117 _0098_
*118 _0099_
*119 _0100_
*120 _0101_
*121 _0102_
*122 _0103_
*123 _0104_
*124 _0105_
*125 _0106_
*126 _0107_
*127 _0108_
*128 _0109_
*129 _0110_
*130 _0111_
*131 _0112_
*132 _0113_
*133 _0114_
*134 _0115_
*135 _0116_
*136 _0117_
*137 _0118_
*138 _0119_
*139 _0120_
*140 _0121_
*141 _0122_
*142 _0123_
*143 _0124_
*144 _0125_
*145 _0126_
*146 _0127_
*147 _0128_
*148 _0129_
*149 _0130_
*150 _0131_
*151 _0132_
*152 _0133_
*153 _0134_
*154 _0135_
*155 _0136_
*156 _0137_
*157 _0138_
*158 _0139_
*159 _0140_
*160 _0141_
*161 _0142_
*162 _0143_
*163 _0144_
*164 _0145_
*165 _0146_
*166 _0147_
*167 _0148_
*168 _0149_
*169 _0150_
*170 _0151_
*171 _0152_
*172 _0153_
*173 _0154_
*174 _0155_
*175 _0156_
*176 _0157_
*177 _0158_
*178 _0159_
*179 _0160_
*180 _0161_
*181 _0162_
*182 _0163_
*183 _0164_
*184 _0165_
*185 _0166_
*186 _0167_
*187 _0168_
*188 _0169_
*189 _0170_
*190 _0171_
*191 _0172_
*192 _0173_
*193 _0174_
*194 _0175_
*195 _0176_
*196 _0177_
*197 _0178_
*198 _0179_
*199 _0180_
*200 _0181_
*201 _0182_
*202 _0183_
*203 _0184_
*204 _0185_
*205 _0186_
*206 _0187_
*207 _0188_
*208 _0189_
*209 _0190_
*210 _0191_
*211 _0192_
*212 _0193_
*213 _0194_
*214 _0195_
*215 _0196_
*216 _0197_
*217 _0198_
*218 _0199_
*219 _0200_
*220 _0201_
*221 _0202_
*222 _0203_
*223 _0204_
*224 _0205_
*225 _0206_
*226 _0207_
*227 _0208_
*228 _0209_
*229 _0210_
*230 _0211_
*231 _0212_
*232 _0213_
*233 _0214_
*234 _0215_
*235 _0216_
*236 _0217_
*237 _0218_
*238 _0219_
*239 _0220_
*240 _0221_
*241 _0222_
*242 _0223_
*243 _0224_
*244 _0225_
*245 _0226_
*246 _0227_
*247 _0228_
*248 _0229_
*249 _0230_
*250 _0231_
*251 _0232_
*252 _0233_
*253 _0234_
*254 _0235_
*255 _0236_
*256 _0237_
*257 _0238_
*258 _0239_
*259 _0240_
*260 _0241_
*261 _0242_
*262 _0243_
*263 _0244_
*264 _0245_
*265 _0246_
*266 _0247_
*267 _0248_
*268 _0249_
*269 _0250_
*270 _0251_
*271 _0252_
*272 _0253_
*273 _0254_
*274 _0255_
*275 _0256_
*276 _0257_
*277 _0258_
*278 _0259_
*279 _0260_
*280 _0261_
*281 _0262_
*282 _0263_
*283 _0264_
*284 _0265_
*285 _0266_
*286 _0267_
*287 _0268_
*288 _0269_
*289 _0270_
*290 _0271_
*291 _0272_
*292 _0273_
*293 _0274_
*294 _0275_
*295 _0276_
*296 _0277_
*297 _0278_
*298 _0279_
*299 _0280_
*300 _0281_
*301 _0282_
*302 _0283_
*303 _0284_
*304 _0285_
*305 _0286_
*306 _0287_
*307 _0288_
*308 _0289_
*309 _0290_
*310 _0291_
*311 _0292_
*312 _0293_
*313 _0294_
*314 _0295_
*315 _0296_
*316 _0297_
*317 _0298_
*318 _0299_
*319 _0300_
*320 _0301_
*321 _0302_
*322 _0303_
*323 _0304_
*324 _0305_
*325 _0306_
*326 _0307_
*327 _0308_
*328 _0309_
*329 _0310_
*330 _0311_
*331 _0312_
*332 _0313_
*333 _0314_
*334 _0315_
*335 _0316_
*336 _0317_
*337 _0318_
*338 _0319_
*339 _0320_
*340 _0321_
*341 _0322_
*342 _0323_
*343 _0324_
*344 _0325_
*345 _0326_
*346 _0327_
*347 _0328_
*348 _0329_
*349 _0330_
*350 _0331_
*351 _0332_
*352 _0333_
*353 _0334_
*354 _0335_
*355 _0336_
*356 _0337_
*357 _0338_
*358 _0339_
*359 _0340_
*360 _0341_
*361 _0342_
*362 _0343_
*363 _0344_
*364 _0345_
*365 _0346_
*366 _0347_
*367 _0348_
*368 _0349_
*369 _0350_
*370 _0351_
*371 _0352_
*372 _0353_
*373 _0354_
*374 _0355_
*375 _0356_
*376 _0357_
*377 _0358_
*378 _0359_
*379 _0360_
*380 _0361_
*381 _0362_
*382 _0363_
*383 _0364_
*384 _0365_
*385 _0366_
*386 _0367_
*387 _0368_
*388 _0369_
*389 _0370_
*390 _0371_
*391 _0372_
*392 _0373_
*393 _0374_
*394 _0375_
*395 _0376_
*396 _0377_
*397 _0378_
*398 _0379_
*399 _0380_
*400 _0381_
*401 _0382_
*402 _0383_
*403 _0384_
*404 _0385_
*405 _0386_
*406 _0387_
*407 _0388_
*408 _0389_
*409 _0390_
*410 _0391_
*411 _0392_
*412 _0393_
*413 _0394_
*414 _0395_
*415 _0396_
*416 _0397_
*417 _0398_
*418 _0399_
*419 _0400_
*420 _0401_
*421 _0402_
*422 _0403_
*423 _0404_
*424 _0405_
*425 _0406_
*426 _0407_
*427 _0408_
*428 _0409_
*429 _0410_
*430 _0411_
*431 _0412_
*432 _0413_
*433 _0414_
*434 _0415_
*435 _0416_
*436 _0417_
*437 _0418_
*438 _0419_
*439 _0420_
*440 _0421_
*441 _0422_
*442 _0423_
*443 _0424_
*444 _0425_
*445 _0426_
*446 _0427_
*447 _0428_
*448 _0429_
*449 _0430_
*450 _0431_
*451 _0432_
*452 _0433_
*453 _0434_
*454 _0435_
*455 _0436_
*456 _0437_
*457 _0438_
*458 _0439_
*459 _0440_
*460 _0441_
*461 _0442_
*462 _0443_
*463 _0444_
*464 _0445_
*465 _0446_
*466 _0447_
*467 _0448_
*468 _0449_
*469 _0450_
*470 _0451_
*471 _0452_
*472 _0453_
*473 _0454_
*474 _0455_
*475 _0456_
*476 _0457_
*477 _0458_
*478 _0459_
*479 _0460_
*480 _0461_
*481 _0462_
*482 _0463_
*483 _0464_
*484 _0465_
*485 _0466_
*486 _0467_
*487 _0468_
*488 _0469_
*489 _0470_
*490 _0471_
*491 _0472_
*492 _0473_
*493 _0474_
*494 _0475_
*495 _0476_
*496 _0477_
*497 _0478_
*498 _0479_
*499 _0480_
*500 _0481_
*501 _0482_
*502 _0483_
*503 _0484_
*504 _0485_
*505 _0486_
*506 _0487_
*507 _0488_
*508 _0489_
*509 _0490_
*510 _0491_
*511 _0492_
*512 _0493_
*513 _0494_
*514 _0495_
*515 _0496_
*516 _0497_
*517 _0498_
*518 _0499_
*519 _0500_
*520 _0501_
*521 _0502_
*522 _0503_
*523 _0504_
*524 _0505_
*525 _0506_
*526 _0507_
*527 _0508_
*528 _0509_
*529 _0510_
*530 _0511_
*531 _0512_
*532 _0513_
*533 _0514_
*534 _0515_
*535 _0516_
*536 _0517_
*537 _0518_
*538 _0519_
*539 _0520_
*540 _0521_
*541 _0522_
*542 _0523_
*543 _0524_
*544 _0525_
*545 _0526_
*546 _0527_
*547 _0528_
*548 _0529_
*549 _0530_
*550 _0531_
*551 _0532_
*552 _0533_
*553 _0534_
*554 _0535_
*555 _0536_
*556 _0537_
*557 _0538_
*558 _0539_
*559 _0540_
*560 _0541_
*561 _0542_
*562 _0543_
*563 _0544_
*564 _0545_
*565 _0546_
*566 _0547_
*567 _0548_
*568 _0549_
*569 _0550_
*570 _0551_
*571 _0552_
*572 _0553_
*573 _0554_
*574 _0555_
*575 _0556_
*576 _0557_
*577 _0558_
*578 _0559_
*579 _0560_
*580 _0561_
*581 _0562_
*582 _0563_
*583 _0564_
*584 _0565_
*585 _0566_
*586 _0567_
*587 _0568_
*588 _0569_
*589 _0570_
*590 _0571_
*591 _0572_
*592 _0573_
*593 _0574_
*594 _0575_
*595 _0576_
*596 _0577_
*597 _0578_
*598 _0579_
*599 _0580_
*600 _0581_
*601 _0582_
*602 _0583_
*603 _0584_
*604 _0585_
*605 _0586_
*606 _0587_
*607 _0588_
*608 _0589_
*609 _0590_
*610 _0591_
*611 _0592_
*612 _0593_
*613 _0594_
*614 _0595_
*615 _0596_
*616 _0597_
*617 _0598_
*618 _0599_
*619 _0600_
*620 _0601_
*621 _0602_
*622 _0603_
*623 _0604_
*624 _0605_
*625 _0606_
*626 _0607_
*627 _0608_
*628 _0609_
*629 _0610_
*630 _0611_
*631 _0612_
*632 _0613_
*633 _0614_
*634 _0615_
*635 _0616_
*636 _0617_
*637 _0618_
*638 _0619_
*639 _0620_
*640 _0621_
*641 _0622_
*642 _0623_
*643 _0624_
*644 _0625_
*645 _0626_
*646 _0627_
*647 _0628_
*648 _0629_
*649 _0630_
*650 _0631_
*651 _0632_
*652 _0633_
*653 _0634_
*654 _0635_
*655 _0636_
*656 _0637_
*657 _0638_
*658 _0639_
*659 _0640_
*660 _0641_
*661 _0642_
*662 _0643_
*663 _0644_
*664 _0645_
*665 _0646_
*666 _0647_
*667 _0648_
*668 _0649_
*669 _0650_
*670 _0651_
*671 _0652_
*672 _0653_
*673 _0654_
*674 _0655_
*675 _0656_
*676 _0657_
*677 _0658_
*678 _0659_
*679 _0660_
*680 _0661_
*681 _0662_
*682 _0663_
*683 _0664_
*684 _0665_
*685 _0666_
*686 _0667_
*687 _0668_
*688 _0669_
*689 _0670_
*690 _0671_
*691 _0672_
*692 _0673_
*693 _0674_
*694 _0675_
*695 _0676_
*696 _0677_
*697 _0678_
*698 _0679_
*699 _0680_
*700 _0681_
*701 _0682_
*702 _0683_
*703 _0684_
*704 _0685_
*705 _0686_
*706 _0687_
*707 _0688_
*708 _0689_
*709 _0690_
*710 _0691_
*711 _0692_
*712 _0693_
*713 _0694_
*714 _0695_
*715 _0696_
*716 _0697_
*717 _0698_
*718 _0699_
*719 _0700_
*720 _0701_
*721 _0702_
*722 _0703_
*723 _0704_
*724 _0705_
*725 _0706_
*726 _0707_
*727 _0708_
*728 _0709_
*729 _0710_
*730 _0711_
*731 _0712_
*732 _0713_
*733 _0714_
*734 _0715_
*735 _0716_
*736 _0717_
*737 _0718_
*738 _0719_
*739 _0720_
*740 _0721_
*741 _0722_
*742 _0723_
*743 _0724_
*744 _0725_
*745 _0726_
*746 _0727_
*747 _0728_
*748 _0729_
*749 _0730_
*750 _0731_
*751 _0732_
*752 _0733_
*753 _0734_
*754 _0735_
*755 _0736_
*756 _0737_
*757 _0738_
*758 _0739_
*759 _0740_
*760 _0741_
*761 _0742_
*762 _0743_
*763 _0744_
*764 _0745_
*765 _0746_
*766 _0747_
*767 _0748_
*768 _0749_
*769 _0750_
*770 _0751_
*771 _0752_
*772 _0753_
*773 _0754_
*774 _0755_
*775 _0756_
*776 _0757_
*777 _0758_
*778 _0759_
*779 _0760_
*780 _0761_
*781 _0762_
*782 _0763_
*783 _0764_
*784 _0765_
*785 _0766_
*786 _0767_
*787 _0768_
*788 _0769_
*789 _0770_
*790 _0771_
*791 _0772_
*792 _0773_
*793 _0774_
*794 _0775_
*795 _0776_
*796 _0777_
*797 _0778_
*798 _0779_
*799 _0780_
*800 _0781_
*801 _0782_
*802 _0783_
*803 _0784_
*804 _0785_
*805 _0786_
*806 _0787_
*807 _0788_
*808 _0789_
*809 _0790_
*810 _0791_
*811 _0792_
*812 _0793_
*813 _0794_
*814 _0795_
*815 _0796_
*816 _0797_
*817 _0798_
*818 _0799_
*819 _0800_
*820 _0801_
*821 _0802_
*822 _0803_
*823 _0804_
*824 _0805_
*825 _0806_
*826 _0807_
*827 _0808_
*828 _0809_
*829 _0810_
*830 _0811_
*831 _0812_
*832 _0813_
*833 _0814_
*834 _0815_
*835 _0816_
*836 _0817_
*837 _0818_
*838 _0819_
*839 _0820_
*840 _0821_
*841 _0822_
*842 _0823_
*843 _0824_
*844 _0825_
*845 _0826_
*846 _0827_
*847 _0828_
*848 _0829_
*849 _0830_
*850 _0831_
*851 _0832_
*852 _0833_
*853 _0834_
*854 _0835_
*855 _0836_
*856 _0837_
*857 _0838_
*858 _0839_
*859 _0840_
*860 _0841_
*861 _0842_
*862 _0843_
*863 _0844_
*864 _0845_
*865 _0846_
*866 _0847_
*867 _0848_
*868 _0849_
*869 _0850_
*870 _0851_
*871 _0852_
*872 _0853_
*873 _0854_
*874 _0855_
*875 _0856_
*876 _0857_
*877 _0858_
*878 _0859_
*879 _0860_
*880 _0861_
*881 _0862_
*882 _0863_
*883 _0864_
*884 clknet_0_io_in[0]
*885 clknet_4_0_0_io_in[0]
*886 clknet_4_10_0_io_in[0]
*887 clknet_4_11_0_io_in[0]
*888 clknet_4_12_0_io_in[0]
*889 clknet_4_13_0_io_in[0]
*890 clknet_4_14_0_io_in[0]
*891 clknet_4_15_0_io_in[0]
*892 clknet_4_1_0_io_in[0]
*893 clknet_4_2_0_io_in[0]
*894 clknet_4_3_0_io_in[0]
*895 clknet_4_4_0_io_in[0]
*896 clknet_4_5_0_io_in[0]
*897 clknet_4_6_0_io_in[0]
*898 clknet_4_7_0_io_in[0]
*899 clknet_4_8_0_io_in[0]
*900 clknet_4_9_0_io_in[0]
*901 crc_final_byte_index\[0\]
*902 crc_final_byte_index\[1\]
*903 crc_final_byte_index\[2\]
*904 crc_main\.bit_index\[0\]
*905 crc_main\.bit_index\[1\]
*906 crc_main\.bit_index\[2\]
*907 crc_main\.bitwidth\[0\]
*908 crc_main\.bitwidth\[1\]
*909 crc_main\.bitwidth\[2\]
*910 crc_main\.bitwidth\[3\]
*911 crc_main\.bitwidth\[4\]
*912 crc_main\.crc_lfsr\[0\]
*913 crc_main\.crc_lfsr\[10\]
*914 crc_main\.crc_lfsr\[11\]
*915 crc_main\.crc_lfsr\[12\]
*916 crc_main\.crc_lfsr\[13\]
*917 crc_main\.crc_lfsr\[14\]
*918 crc_main\.crc_lfsr\[15\]
*919 crc_main\.crc_lfsr\[16\]
*920 crc_main\.crc_lfsr\[17\]
*921 crc_main\.crc_lfsr\[18\]
*922 crc_main\.crc_lfsr\[19\]
*923 crc_main\.crc_lfsr\[1\]
*924 crc_main\.crc_lfsr\[20\]
*925 crc_main\.crc_lfsr\[21\]
*926 crc_main\.crc_lfsr\[22\]
*927 crc_main\.crc_lfsr\[23\]
*928 crc_main\.crc_lfsr\[24\]
*929 crc_main\.crc_lfsr\[25\]
*930 crc_main\.crc_lfsr\[26\]
*931 crc_main\.crc_lfsr\[27\]
*932 crc_main\.crc_lfsr\[28\]
*933 crc_main\.crc_lfsr\[29\]
*934 crc_main\.crc_lfsr\[2\]
*935 crc_main\.crc_lfsr\[30\]
*936 crc_main\.crc_lfsr\[31\]
*937 crc_main\.crc_lfsr\[3\]
*938 crc_main\.crc_lfsr\[4\]
*939 crc_main\.crc_lfsr\[5\]
*940 crc_main\.crc_lfsr\[6\]
*941 crc_main\.crc_lfsr\[7\]
*942 crc_main\.crc_lfsr\[8\]
*943 crc_main\.crc_lfsr\[9\]
*944 crc_main\.data\[0\]
*945 crc_main\.data\[1\]
*946 crc_main\.data\[2\]
*947 crc_main\.data\[3\]
*948 crc_main\.data\[4\]
*949 crc_main\.data\[5\]
*950 crc_main\.data\[6\]
*951 crc_main\.data\[7\]
*952 crc_main\.init_value\[0\]
*953 crc_main\.init_value\[10\]
*954 crc_main\.init_value\[11\]
*955 crc_main\.init_value\[12\]
*956 crc_main\.init_value\[13\]
*957 crc_main\.init_value\[14\]
*958 crc_main\.init_value\[15\]
*959 crc_main\.init_value\[16\]
*960 crc_main\.init_value\[17\]
*961 crc_main\.init_value\[18\]
*962 crc_main\.init_value\[19\]
*963 crc_main\.init_value\[1\]
*964 crc_main\.init_value\[20\]
*965 crc_main\.init_value\[21\]
*966 crc_main\.init_value\[22\]
*967 crc_main\.init_value\[23\]
*968 crc_main\.init_value\[24\]
*969 crc_main\.init_value\[25\]
*970 crc_main\.init_value\[26\]
*971 crc_main\.init_value\[27\]
*972 crc_main\.init_value\[28\]
*973 crc_main\.init_value\[29\]
*974 crc_main\.init_value\[2\]
*975 crc_main\.init_value\[30\]
*976 crc_main\.init_value\[31\]
*977 crc_main\.init_value\[3\]
*978 crc_main\.init_value\[4\]
*979 crc_main\.init_value\[5\]
*980 crc_main\.init_value\[6\]
*981 crc_main\.init_value\[7\]
*982 crc_main\.init_value\[8\]
*983 crc_main\.init_value\[9\]
*984 crc_main\.lfsr\.taps\[0\]
*985 crc_main\.lfsr\.taps\[10\]
*986 crc_main\.lfsr\.taps\[11\]
*987 crc_main\.lfsr\.taps\[12\]
*988 crc_main\.lfsr\.taps\[13\]
*989 crc_main\.lfsr\.taps\[14\]
*990 crc_main\.lfsr\.taps\[15\]
*991 crc_main\.lfsr\.taps\[16\]
*992 crc_main\.lfsr\.taps\[17\]
*993 crc_main\.lfsr\.taps\[18\]
*994 crc_main\.lfsr\.taps\[19\]
*995 crc_main\.lfsr\.taps\[1\]
*996 crc_main\.lfsr\.taps\[20\]
*997 crc_main\.lfsr\.taps\[21\]
*998 crc_main\.lfsr\.taps\[22\]
*999 crc_main\.lfsr\.taps\[23\]
*1000 crc_main\.lfsr\.taps\[24\]
*1001 crc_main\.lfsr\.taps\[25\]
*1002 crc_main\.lfsr\.taps\[26\]
*1003 crc_main\.lfsr\.taps\[27\]
*1004 crc_main\.lfsr\.taps\[28\]
*1005 crc_main\.lfsr\.taps\[29\]
*1006 crc_main\.lfsr\.taps\[2\]
*1007 crc_main\.lfsr\.taps\[30\]
*1008 crc_main\.lfsr\.taps\[31\]
*1009 crc_main\.lfsr\.taps\[3\]
*1010 crc_main\.lfsr\.taps\[4\]
*1011 crc_main\.lfsr\.taps\[5\]
*1012 crc_main\.lfsr\.taps\[6\]
*1013 crc_main\.lfsr\.taps\[7\]
*1014 crc_main\.lfsr\.taps\[8\]
*1015 crc_main\.lfsr\.taps\[9\]
*1016 crc_main\.reflect_in
*1017 crc_main\.reflect_out
*1018 crc_main\.xor_out\[0\]
*1019 crc_main\.xor_out\[10\]
*1020 crc_main\.xor_out\[11\]
*1021 crc_main\.xor_out\[12\]
*1022 crc_main\.xor_out\[13\]
*1023 crc_main\.xor_out\[14\]
*1024 crc_main\.xor_out\[15\]
*1025 crc_main\.xor_out\[16\]
*1026 crc_main\.xor_out\[17\]
*1027 crc_main\.xor_out\[18\]
*1028 crc_main\.xor_out\[19\]
*1029 crc_main\.xor_out\[1\]
*1030 crc_main\.xor_out\[20\]
*1031 crc_main\.xor_out\[21\]
*1032 crc_main\.xor_out\[22\]
*1033 crc_main\.xor_out\[23\]
*1034 crc_main\.xor_out\[24\]
*1035 crc_main\.xor_out\[25\]
*1036 crc_main\.xor_out\[26\]
*1037 crc_main\.xor_out\[27\]
*1038 crc_main\.xor_out\[28\]
*1039 crc_main\.xor_out\[29\]
*1040 crc_main\.xor_out\[2\]
*1041 crc_main\.xor_out\[30\]
*1042 crc_main\.xor_out\[31\]
*1043 crc_main\.xor_out\[3\]
*1044 crc_main\.xor_out\[4\]
*1045 crc_main\.xor_out\[5\]
*1046 crc_main\.xor_out\[6\]
*1047 crc_main\.xor_out\[7\]
*1048 crc_main\.xor_out\[8\]
*1049 crc_main\.xor_out\[9\]
*1050 crc_state\[0\]
*1051 crc_state\[1\]
*1052 cur_data_in\[3\]
*1053 current_cmd\[0\]
*1054 current_cmd\[1\]
*1055 net1
*1056 net2
*1057 net3
*1058 net4
*1059 net5
*1060 net6
*1061 net7
*1062 setup_fsm\[0\]
*1063 setup_fsm\[1\]
*1064 setup_fsm\[2\]
*1065 setup_nibble_count\[0\]
*1066 setup_nibble_count\[1\]
*1067 setup_nibble_count\[2\]
*1068 ANTENNA_1
*1069 ANTENNA_2
*1070 FILLER_0_104
*1071 FILLER_0_110
*1072 FILLER_0_113
*1073 FILLER_0_118
*1074 FILLER_0_130
*1075 FILLER_0_137
*1076 FILLER_0_141
*1077 FILLER_0_152
*1078 FILLER_0_16
*1079 FILLER_0_164
*1080 FILLER_0_169
*1081 FILLER_0_181
*1082 FILLER_0_193
*1083 FILLER_0_197
*1084 FILLER_0_219
*1085 FILLER_0_223
*1086 FILLER_0_225
*1087 FILLER_0_23
*1088 FILLER_0_238
*1089 FILLER_0_250
*1090 FILLER_0_253
*1091 FILLER_0_260
*1092 FILLER_0_27
*1093 FILLER_0_272
*1094 FILLER_0_281
*1095 FILLER_0_29
*1096 FILLER_0_293
*1097 FILLER_0_3
*1098 FILLER_0_35
*1099 FILLER_0_42
*1100 FILLER_0_49
*1101 FILLER_0_55
*1102 FILLER_0_57
*1103 FILLER_0_75
*1104 FILLER_0_8
*1105 FILLER_0_82
*1106 FILLER_0_85
*1107 FILLER_0_98
*1108 FILLER_10_11
*1109 FILLER_10_113
*1110 FILLER_10_138
*1111 FILLER_10_141
*1112 FILLER_10_154
*1113 FILLER_10_160
*1114 FILLER_10_169
*1115 FILLER_10_17
*1116 FILLER_10_178
*1117 FILLER_10_186
*1118 FILLER_10_194
*1119 FILLER_10_197
*1120 FILLER_10_201
*1121 FILLER_10_210
*1122 FILLER_10_23
*1123 FILLER_10_231
*1124 FILLER_10_239
*1125 FILLER_10_250
*1126 FILLER_10_253
*1127 FILLER_10_263
*1128 FILLER_10_27
*1129 FILLER_10_288
*1130 FILLER_10_29
*1131 FILLER_10_296
*1132 FILLER_10_3
*1133 FILLER_10_34
*1134 FILLER_10_45
*1135 FILLER_10_53
*1136 FILLER_10_61
*1137 FILLER_10_72
*1138 FILLER_10_76
*1139 FILLER_10_82
*1140 FILLER_10_85
*1141 FILLER_10_93
*1142 FILLER_11_103
*1143 FILLER_11_110
*1144 FILLER_11_113
*1145 FILLER_11_126
*1146 FILLER_11_138
*1147 FILLER_11_152
*1148 FILLER_11_161
*1149 FILLER_11_167
*1150 FILLER_11_169
*1151 FILLER_11_18
*1152 FILLER_11_188
*1153 FILLER_11_196
*1154 FILLER_11_207
*1155 FILLER_11_219
*1156 FILLER_11_223
*1157 FILLER_11_225
*1158 FILLER_11_236
*1159 FILLER_11_24
*1160 FILLER_11_247
*1161 FILLER_11_258
*1162 FILLER_11_274
*1163 FILLER_11_281
*1164 FILLER_11_293
*1165 FILLER_11_3
*1166 FILLER_11_32
*1167 FILLER_11_36
*1168 FILLER_11_44
*1169 FILLER_11_53
*1170 FILLER_11_57
*1171 FILLER_11_61
*1172 FILLER_11_67
*1173 FILLER_11_76
*1174 FILLER_11_8
*1175 FILLER_11_88
*1176 FILLER_11_94
*1177 FILLER_12_104
*1178 FILLER_12_108
*1179 FILLER_12_125
*1180 FILLER_12_138
*1181 FILLER_12_141
*1182 FILLER_12_147
*1183 FILLER_12_164
*1184 FILLER_12_173
*1185 FILLER_12_181
*1186 FILLER_12_193
*1187 FILLER_12_197
*1188 FILLER_12_210
*1189 FILLER_12_221
*1190 FILLER_12_229
*1191 FILLER_12_240
*1192 FILLER_12_249
*1193 FILLER_12_253
*1194 FILLER_12_257
*1195 FILLER_12_26
*1196 FILLER_12_265
*1197 FILLER_12_274
*1198 FILLER_12_286
*1199 FILLER_12_29
*1200 FILLER_12_298
*1201 FILLER_12_3
*1202 FILLER_12_39
*1203 FILLER_12_59
*1204 FILLER_12_68
*1205 FILLER_12_72
*1206 FILLER_12_78
*1207 FILLER_12_85
*1208 FILLER_12_9
*1209 FILLER_13_109
*1210 FILLER_13_113
*1211 FILLER_13_123
*1212 FILLER_13_145
*1213 FILLER_13_157
*1214 FILLER_13_166
*1215 FILLER_13_169
*1216 FILLER_13_189
*1217 FILLER_13_209
*1218 FILLER_13_21
*1219 FILLER_13_213
*1220 FILLER_13_222
*1221 FILLER_13_225
*1222 FILLER_13_25
*1223 FILLER_13_250
*1224 FILLER_13_266
*1225 FILLER_13_278
*1226 FILLER_13_281
*1227 FILLER_13_29
*1228 FILLER_13_293
*1229 FILLER_13_3
*1230 FILLER_13_36
*1231 FILLER_13_45
*1232 FILLER_13_54
*1233 FILLER_13_57
*1234 FILLER_13_61
*1235 FILLER_13_67
*1236 FILLER_13_71
*1237 FILLER_13_88
*1238 FILLER_13_92
*1239 FILLER_14_102
*1240 FILLER_14_111
*1241 FILLER_14_122
*1242 FILLER_14_138
*1243 FILLER_14_141
*1244 FILLER_14_148
*1245 FILLER_14_155
*1246 FILLER_14_175
*1247 FILLER_14_182
*1248 FILLER_14_19
*1249 FILLER_14_191
*1250 FILLER_14_195
*1251 FILLER_14_197
*1252 FILLER_14_203
*1253 FILLER_14_215
*1254 FILLER_14_236
*1255 FILLER_14_244
*1256 FILLER_14_250
*1257 FILLER_14_253
*1258 FILLER_14_257
*1259 FILLER_14_26
*1260 FILLER_14_266
*1261 FILLER_14_287
*1262 FILLER_14_29
*1263 FILLER_14_3
*1264 FILLER_14_52
*1265 FILLER_14_65
*1266 FILLER_14_82
*1267 FILLER_14_85
*1268 FILLER_14_9
*1269 FILLER_14_93
*1270 FILLER_15_101
*1271 FILLER_15_110
*1272 FILLER_15_113
*1273 FILLER_15_123
*1274 FILLER_15_127
*1275 FILLER_15_13
*1276 FILLER_15_136
*1277 FILLER_15_156
*1278 FILLER_15_164
*1279 FILLER_15_169
*1280 FILLER_15_179
*1281 FILLER_15_183
*1282 FILLER_15_190
*1283 FILLER_15_194
*1284 FILLER_15_20
*1285 FILLER_15_202
*1286 FILLER_15_206
*1287 FILLER_15_215
*1288 FILLER_15_222
*1289 FILLER_15_225
*1290 FILLER_15_232
*1291 FILLER_15_252
*1292 FILLER_15_263
*1293 FILLER_15_275
*1294 FILLER_15_279
*1295 FILLER_15_281
*1296 FILLER_15_293
*1297 FILLER_15_3
*1298 FILLER_15_45
*1299 FILLER_15_49
*1300 FILLER_15_54
*1301 FILLER_15_57
*1302 FILLER_15_68
*1303 FILLER_15_7
*1304 FILLER_15_78
*1305 FILLER_15_90
*1306 FILLER_15_96
*1307 FILLER_16_103
*1308 FILLER_16_118
*1309 FILLER_16_130
*1310 FILLER_16_138
*1311 FILLER_16_141
*1312 FILLER_16_149
*1313 FILLER_16_157
*1314 FILLER_16_165
*1315 FILLER_16_185
*1316 FILLER_16_189
*1317 FILLER_16_194
*1318 FILLER_16_197
*1319 FILLER_16_206
*1320 FILLER_16_210
*1321 FILLER_16_228
*1322 FILLER_16_23
*1323 FILLER_16_232
*1324 FILLER_16_241
*1325 FILLER_16_250
*1326 FILLER_16_253
*1327 FILLER_16_267
*1328 FILLER_16_27
*1329 FILLER_16_288
*1330 FILLER_16_29
*1331 FILLER_16_296
*1332 FILLER_16_3
*1333 FILLER_16_35
*1334 FILLER_16_45
*1335 FILLER_16_51
*1336 FILLER_16_58
*1337 FILLER_16_78
*1338 FILLER_16_85
*1339 FILLER_17_10
*1340 FILLER_17_103
*1341 FILLER_17_110
*1342 FILLER_17_113
*1343 FILLER_17_117
*1344 FILLER_17_123
*1345 FILLER_17_144
*1346 FILLER_17_156
*1347 FILLER_17_164
*1348 FILLER_17_169
*1349 FILLER_17_175
*1350 FILLER_17_185
*1351 FILLER_17_198
*1352 FILLER_17_210
*1353 FILLER_17_222
*1354 FILLER_17_225
*1355 FILLER_17_23
*1356 FILLER_17_247
*1357 FILLER_17_253
*1358 FILLER_17_261
*1359 FILLER_17_275
*1360 FILLER_17_279
*1361 FILLER_17_281
*1362 FILLER_17_287
*1363 FILLER_17_3
*1364 FILLER_17_31
*1365 FILLER_17_43
*1366 FILLER_17_54
*1367 FILLER_17_57
*1368 FILLER_17_64
*1369 FILLER_17_76
*1370 FILLER_17_91
*1371 FILLER_18_113
*1372 FILLER_18_124
*1373 FILLER_18_133
*1374 FILLER_18_139
*1375 FILLER_18_141
*1376 FILLER_18_148
*1377 FILLER_18_157
*1378 FILLER_18_169
*1379 FILLER_18_177
*1380 FILLER_18_184
*1381 FILLER_18_192
*1382 FILLER_18_197
*1383 FILLER_18_21
*1384 FILLER_18_210
*1385 FILLER_18_218
*1386 FILLER_18_228
*1387 FILLER_18_240
*1388 FILLER_18_244
*1389 FILLER_18_250
*1390 FILLER_18_253
*1391 FILLER_18_257
*1392 FILLER_18_266
*1393 FILLER_18_27
*1394 FILLER_18_289
*1395 FILLER_18_29
*1396 FILLER_18_297
*1397 FILLER_18_3
*1398 FILLER_18_40
*1399 FILLER_18_49
*1400 FILLER_18_62
*1401 FILLER_18_71
*1402 FILLER_18_8
*1403 FILLER_18_81
*1404 FILLER_18_85
*1405 FILLER_18_93
*1406 FILLER_19_101
*1407 FILLER_19_110
*1408 FILLER_19_113
*1409 FILLER_19_123
*1410 FILLER_19_130
*1411 FILLER_19_141
*1412 FILLER_19_156
*1413 FILLER_19_166
*1414 FILLER_19_169
*1415 FILLER_19_178
*1416 FILLER_19_192
*1417 FILLER_19_21
*1418 FILLER_19_211
*1419 FILLER_19_222
*1420 FILLER_19_225
*1421 FILLER_19_238
*1422 FILLER_19_246
*1423 FILLER_19_250
*1424 FILLER_19_258
*1425 FILLER_19_278
*1426 FILLER_19_281
*1427 FILLER_19_293
*1428 FILLER_19_3
*1429 FILLER_19_46
*1430 FILLER_19_54
*1431 FILLER_19_57
*1432 FILLER_19_75
*1433 FILLER_19_85
*1434 FILLER_1_107
*1435 FILLER_1_111
*1436 FILLER_1_113
*1437 FILLER_1_120
*1438 FILLER_1_124
*1439 FILLER_1_142
*1440 FILLER_1_162
*1441 FILLER_1_169
*1442 FILLER_1_188
*1443 FILLER_1_208
*1444 FILLER_1_220
*1445 FILLER_1_225
*1446 FILLER_1_243
*1447 FILLER_1_265
*1448 FILLER_1_277
*1449 FILLER_1_281
*1450 FILLER_1_29
*1451 FILLER_1_293
*1452 FILLER_1_3
*1453 FILLER_1_49
*1454 FILLER_1_55
*1455 FILLER_1_57
*1456 FILLER_1_65
*1457 FILLER_1_87
*1458 FILLER_1_9
*1459 FILLER_20_10
*1460 FILLER_20_105
*1461 FILLER_20_112
*1462 FILLER_20_124
*1463 FILLER_20_129
*1464 FILLER_20_138
*1465 FILLER_20_141
*1466 FILLER_20_151
*1467 FILLER_20_155
*1468 FILLER_20_160
*1469 FILLER_20_172
*1470 FILLER_20_180
*1471 FILLER_20_188
*1472 FILLER_20_194
*1473 FILLER_20_197
*1474 FILLER_20_205
*1475 FILLER_20_225
*1476 FILLER_20_23
*1477 FILLER_20_233
*1478 FILLER_20_250
*1479 FILLER_20_253
*1480 FILLER_20_267
*1481 FILLER_20_27
*1482 FILLER_20_287
*1483 FILLER_20_29
*1484 FILLER_20_3
*1485 FILLER_20_34
*1486 FILLER_20_46
*1487 FILLER_20_52
*1488 FILLER_20_61
*1489 FILLER_20_67
*1490 FILLER_20_75
*1491 FILLER_20_82
*1492 FILLER_20_85
*1493 FILLER_20_93
*1494 FILLER_21_110
*1495 FILLER_21_113
*1496 FILLER_21_131
*1497 FILLER_21_14
*1498 FILLER_21_140
*1499 FILLER_21_152
*1500 FILLER_21_160
*1501 FILLER_21_169
*1502 FILLER_21_188
*1503 FILLER_21_201
*1504 FILLER_21_21
*1505 FILLER_21_215
*1506 FILLER_21_222
*1507 FILLER_21_225
*1508 FILLER_21_232
*1509 FILLER_21_241
*1510 FILLER_21_250
*1511 FILLER_21_259
*1512 FILLER_21_27
*1513 FILLER_21_271
*1514 FILLER_21_278
*1515 FILLER_21_281
*1516 FILLER_21_288
*1517 FILLER_21_297
*1518 FILLER_21_3
*1519 FILLER_21_31
*1520 FILLER_21_42
*1521 FILLER_21_51
*1522 FILLER_21_55
*1523 FILLER_21_57
*1524 FILLER_21_65
*1525 FILLER_21_78
*1526 FILLER_21_84
*1527 FILLER_21_90
*1528 FILLER_22_105
*1529 FILLER_22_113
*1530 FILLER_22_119
*1531 FILLER_22_136
*1532 FILLER_22_141
*1533 FILLER_22_157
*1534 FILLER_22_169
*1535 FILLER_22_173
*1536 FILLER_22_180
*1537 FILLER_22_188
*1538 FILLER_22_194
*1539 FILLER_22_197
*1540 FILLER_22_207
*1541 FILLER_22_211
*1542 FILLER_22_228
*1543 FILLER_22_242
*1544 FILLER_22_25
*1545 FILLER_22_250
*1546 FILLER_22_253
*1547 FILLER_22_265
*1548 FILLER_22_273
*1549 FILLER_22_29
*1550 FILLER_22_291
*1551 FILLER_22_3
*1552 FILLER_22_40
*1553 FILLER_22_62
*1554 FILLER_22_82
*1555 FILLER_22_85
*1556 FILLER_22_95
*1557 FILLER_23_10
*1558 FILLER_23_106
*1559 FILLER_23_113
*1560 FILLER_23_127
*1561 FILLER_23_139
*1562 FILLER_23_159
*1563 FILLER_23_167
*1564 FILLER_23_169
*1565 FILLER_23_17
*1566 FILLER_23_188
*1567 FILLER_23_208
*1568 FILLER_23_220
*1569 FILLER_23_225
*1570 FILLER_23_23
*1571 FILLER_23_232
*1572 FILLER_23_236
*1573 FILLER_23_253
*1574 FILLER_23_262
*1575 FILLER_23_266
*1576 FILLER_23_275
*1577 FILLER_23_279
*1578 FILLER_23_281
*1579 FILLER_23_288
*1580 FILLER_23_297
*1581 FILLER_23_3
*1582 FILLER_23_40
*1583 FILLER_23_53
*1584 FILLER_23_57
*1585 FILLER_23_63
*1586 FILLER_23_76
*1587 FILLER_23_80
*1588 FILLER_23_97
*1589 FILLER_24_10
*1590 FILLER_24_104
*1591 FILLER_24_124
*1592 FILLER_24_138
*1593 FILLER_24_141
*1594 FILLER_24_146
*1595 FILLER_24_156
*1596 FILLER_24_17
*1597 FILLER_24_177
*1598 FILLER_24_191
*1599 FILLER_24_195
*1600 FILLER_24_197
*1601 FILLER_24_207
*1602 FILLER_24_214
*1603 FILLER_24_223
*1604 FILLER_24_232
*1605 FILLER_24_241
*1606 FILLER_24_250
*1607 FILLER_24_253
*1608 FILLER_24_26
*1609 FILLER_24_265
*1610 FILLER_24_285
*1611 FILLER_24_29
*1612 FILLER_24_297
*1613 FILLER_24_3
*1614 FILLER_24_36
*1615 FILLER_24_45
*1616 FILLER_24_54
*1617 FILLER_24_61
*1618 FILLER_24_72
*1619 FILLER_24_81
*1620 FILLER_24_85
*1621 FILLER_24_92
*1622 FILLER_25_102
*1623 FILLER_25_11
*1624 FILLER_25_110
*1625 FILLER_25_113
*1626 FILLER_25_117
*1627 FILLER_25_134
*1628 FILLER_25_155
*1629 FILLER_25_165
*1630 FILLER_25_169
*1631 FILLER_25_179
*1632 FILLER_25_183
*1633 FILLER_25_200
*1634 FILLER_25_212
*1635 FILLER_25_22
*1636 FILLER_25_221
*1637 FILLER_25_225
*1638 FILLER_25_231
*1639 FILLER_25_251
*1640 FILLER_25_262
*1641 FILLER_25_271
*1642 FILLER_25_279
*1643 FILLER_25_281
*1644 FILLER_25_288
*1645 FILLER_25_296
*1646 FILLER_25_3
*1647 FILLER_25_30
*1648 FILLER_25_50
*1649 FILLER_25_57
*1650 FILLER_25_61
*1651 FILLER_25_71
*1652 FILLER_25_80
*1653 FILLER_25_92
*1654 FILLER_26_105
*1655 FILLER_26_125
*1656 FILLER_26_137
*1657 FILLER_26_141
*1658 FILLER_26_149
*1659 FILLER_26_156
*1660 FILLER_26_181
*1661 FILLER_26_190
*1662 FILLER_26_197
*1663 FILLER_26_203
*1664 FILLER_26_214
*1665 FILLER_26_223
*1666 FILLER_26_230
*1667 FILLER_26_242
*1668 FILLER_26_249
*1669 FILLER_26_253
*1670 FILLER_26_26
*1671 FILLER_26_265
*1672 FILLER_26_285
*1673 FILLER_26_29
*1674 FILLER_26_297
*1675 FILLER_26_3
*1676 FILLER_26_37
*1677 FILLER_26_43
*1678 FILLER_26_50
*1679 FILLER_26_58
*1680 FILLER_26_71
*1681 FILLER_26_82
*1682 FILLER_26_85
*1683 FILLER_26_9
*1684 FILLER_26_93
*1685 FILLER_27_10
*1686 FILLER_27_109
*1687 FILLER_27_113
*1688 FILLER_27_120
*1689 FILLER_27_131
*1690 FILLER_27_142
*1691 FILLER_27_16
*1692 FILLER_27_166
*1693 FILLER_27_169
*1694 FILLER_27_177
*1695 FILLER_27_185
*1696 FILLER_27_192
*1697 FILLER_27_201
*1698 FILLER_27_209
*1699 FILLER_27_219
*1700 FILLER_27_223
*1701 FILLER_27_225
*1702 FILLER_27_232
*1703 FILLER_27_240
*1704 FILLER_27_258
*1705 FILLER_27_274
*1706 FILLER_27_281
*1707 FILLER_27_293
*1708 FILLER_27_3
*1709 FILLER_27_33
*1710 FILLER_27_41
*1711 FILLER_27_54
*1712 FILLER_27_57
*1713 FILLER_27_71
*1714 FILLER_27_79
*1715 FILLER_27_96
*1716 FILLER_28_107
*1717 FILLER_28_111
*1718 FILLER_28_129
*1719 FILLER_28_133
*1720 FILLER_28_138
*1721 FILLER_28_141
*1722 FILLER_28_148
*1723 FILLER_28_158
*1724 FILLER_28_183
*1725 FILLER_28_194
*1726 FILLER_28_197
*1727 FILLER_28_209
*1728 FILLER_28_22
*1729 FILLER_28_229
*1730 FILLER_28_235
*1731 FILLER_28_244
*1732 FILLER_28_253
*1733 FILLER_28_257
*1734 FILLER_28_266
*1735 FILLER_28_287
*1736 FILLER_28_29
*1737 FILLER_28_3
*1738 FILLER_28_38
*1739 FILLER_28_42
*1740 FILLER_28_59
*1741 FILLER_28_67
*1742 FILLER_28_74
*1743 FILLER_28_81
*1744 FILLER_28_85
*1745 FILLER_28_90
*1746 FILLER_28_94
*1747 FILLER_28_98
*1748 FILLER_29_11
*1749 FILLER_29_110
*1750 FILLER_29_113
*1751 FILLER_29_124
*1752 FILLER_29_149
*1753 FILLER_29_161
*1754 FILLER_29_167
*1755 FILLER_29_169
*1756 FILLER_29_196
*1757 FILLER_29_200
*1758 FILLER_29_217
*1759 FILLER_29_22
*1760 FILLER_29_223
*1761 FILLER_29_225
*1762 FILLER_29_236
*1763 FILLER_29_248
*1764 FILLER_29_256
*1765 FILLER_29_264
*1766 FILLER_29_276
*1767 FILLER_29_281
*1768 FILLER_29_29
*1769 FILLER_29_293
*1770 FILLER_29_3
*1771 FILLER_29_43
*1772 FILLER_29_49
*1773 FILLER_29_54
*1774 FILLER_29_57
*1775 FILLER_29_66
*1776 FILLER_29_72
*1777 FILLER_29_78