*SPEF "ieee 1481-1999"
*DESIGN "greenstyle_lfsr"
*DATE "11:11:11 Fri 11 11, 1111"
*VENDOR "OpenRCX"
*PROGRAM "Parallel Extraction"
*VERSION "1.0"
*DESIGN_FLOW "NAME_SCOPE LOCAL" "PIN_CAP NONE"
*DIVIDER /
*DELIMITER :
*BUS_DELIMITER []
*T_UNIT 1 NS
*C_UNIT 1 PF
*R_UNIT 1 OHM
*L_UNIT 1 HENRY

*NAME_MAP
*1 io_in[0]
*2 io_in[1]
*3 io_in[2]
*4 io_in[3]
*5 io_in[4]
*6 io_in[5]
*7 io_in[6]
*8 io_in[7]
*9 io_out[0]
*10 io_out[1]
*11 io_out[2]
*12 io_out[3]
*13 io_out[4]
*14 io_out[5]
*15 io_out[6]
*16 io_out[7]
*19 _000_
*20 _001_
*21 _002_
*22 _003_
*23 _004_
*24 _005_
*25 _006_
*26 _007_
*27 _008_
*28 _009_
*29 _010_
*30 _011_
*31 _012_
*32 _013_
*33 _014_
*34 _015_
*35 _016_
*36 _017_
*37 _018_
*38 _019_
*39 _020_
*40 _021_
*41 _022_
*42 _023_
*43 _024_
*44 _025_
*45 _026_
*46 _027_
*47 _028_
*48 _029_
*49 _030_
*50 _031_
*51 _032_
*52 _033_
*53 _034_
*54 _035_
*55 _036_
*56 _037_
*57 _038_
*58 _039_
*59 _040_
*60 _041_
*61 _042_
*62 _043_
*63 _044_
*64 _045_
*65 _046_
*66 _047_
*67 _048_
*68 _049_
*69 _050_
*70 _051_
*71 _052_
*72 _053_
*73 _054_
*74 _055_
*75 _056_
*76 _057_
*77 _058_
*78 _059_
*79 _060_
*80 _061_
*81 _062_
*82 _063_
*83 _064_
*84 _065_
*85 _066_
*86 _067_
*87 _068_
*88 _069_
*89 _070_
*90 _071_
*91 clknet_0_io_in[0]
*92 clknet_1_0__leaf_io_in[0]
*93 clknet_1_1__leaf_io_in[0]
*94 low_high
*95 lsb
*96 net1
*97 net2
*98 net3
*99 net4
*100 net5
*101 net6
*102 net7
*103 xors\[0\]
*104 xors\[1\]
*105 xors\[2\]
*106 xors\[3\]
*107 xors\[4\]
*108 xors\[5\]
*109 xors\[6\]
*110 FILLER_0_111
*111 FILLER_0_113
*112 FILLER_0_119
*113 FILLER_0_131
*114 FILLER_0_139
*115 FILLER_0_141
*116 FILLER_0_153
*117 FILLER_0_161
*118 FILLER_0_167
*119 FILLER_0_169
*120 FILLER_0_181
*121 FILLER_0_193
*122 FILLER_0_197
*123 FILLER_0_209
*124 FILLER_0_21
*125 FILLER_0_221
*126 FILLER_0_225
*127 FILLER_0_237
*128 FILLER_0_249
*129 FILLER_0_253
*130 FILLER_0_265
*131 FILLER_0_27
*132 FILLER_0_277
*133 FILLER_0_281
*134 FILLER_0_29
*135 FILLER_0_293
*136 FILLER_0_3
*137 FILLER_0_50
*138 FILLER_0_57
*139 FILLER_0_75
*140 FILLER_0_82
*141 FILLER_0_85
*142 FILLER_0_91
*143 FILLER_0_99
*144 FILLER_10_109
*145 FILLER_10_11
*146 FILLER_10_118
*147 FILLER_10_130
*148 FILLER_10_138
*149 FILLER_10_141
*150 FILLER_10_153
*151 FILLER_10_165
*152 FILLER_10_177
*153 FILLER_10_189
*154 FILLER_10_195
*155 FILLER_10_197
*156 FILLER_10_209
*157 FILLER_10_221
*158 FILLER_10_23
*159 FILLER_10_233
*160 FILLER_10_245
*161 FILLER_10_251
*162 FILLER_10_253
*163 FILLER_10_265
*164 FILLER_10_27
*165 FILLER_10_277
*166 FILLER_10_289
*167 FILLER_10_29
*168 FILLER_10_297
*169 FILLER_10_3
*170 FILLER_10_41
*171 FILLER_10_49
*172 FILLER_10_58
*173 FILLER_10_66
*174 FILLER_10_73
*175 FILLER_10_81
*176 FILLER_10_85
*177 FILLER_10_97
*178 FILLER_11_104
*179 FILLER_11_113
*180 FILLER_11_125
*181 FILLER_11_137
*182 FILLER_11_149
*183 FILLER_11_163
*184 FILLER_11_167
*185 FILLER_11_169
*186 FILLER_11_181
*187 FILLER_11_193
*188 FILLER_11_205
*189 FILLER_11_21
*190 FILLER_11_217
*191 FILLER_11_223
*192 FILLER_11_225
*193 FILLER_11_237
*194 FILLER_11_249
*195 FILLER_11_261
*196 FILLER_11_273
*197 FILLER_11_279
*198 FILLER_11_281
*199 FILLER_11_293
*200 FILLER_11_3
*201 FILLER_11_33
*202 FILLER_11_42
*203 FILLER_11_49
*204 FILLER_11_55
*205 FILLER_11_57
*206 FILLER_11_69
*207 FILLER_11_81
*208 FILLER_11_89
*209 FILLER_11_9
*210 FILLER_11_95
*211 FILLER_11_99
*212 FILLER_12_101
*213 FILLER_12_105
*214 FILLER_12_11
*215 FILLER_12_115
*216 FILLER_12_127
*217 FILLER_12_139
*218 FILLER_12_141
*219 FILLER_12_153
*220 FILLER_12_165
*221 FILLER_12_177
*222 FILLER_12_189
*223 FILLER_12_195
*224 FILLER_12_197
*225 FILLER_12_209
*226 FILLER_12_221
*227 FILLER_12_23
*228 FILLER_12_233
*229 FILLER_12_245
*230 FILLER_12_251
*231 FILLER_12_253
*232 FILLER_12_265
*233 FILLER_12_27
*234 FILLER_12_277
*235 FILLER_12_289
*236 FILLER_12_29
*237 FILLER_12_297
*238 FILLER_12_3
*239 FILLER_12_41
*240 FILLER_12_47
*241 FILLER_12_51
*242 FILLER_12_57
*243 FILLER_12_69
*244 FILLER_12_81
*245 FILLER_12_85
*246 FILLER_12_91
*247 FILLER_13_100
*248 FILLER_13_113
*249 FILLER_13_129
*250 FILLER_13_141
*251 FILLER_13_15
*252 FILLER_13_153
*253 FILLER_13_165
*254 FILLER_13_169
*255 FILLER_13_181
*256 FILLER_13_193
*257 FILLER_13_205
*258 FILLER_13_217
*259 FILLER_13_223
*260 FILLER_13_225
*261 FILLER_13_237
*262 FILLER_13_249
*263 FILLER_13_261
*264 FILLER_13_27
*265 FILLER_13_273
*266 FILLER_13_279
*267 FILLER_13_281
*268 FILLER_13_293
*269 FILLER_13_3
*270 FILLER_13_40
*271 FILLER_13_52
*272 FILLER_13_57
*273 FILLER_13_65
*274 FILLER_13_76
*275 FILLER_13_88
*276 FILLER_14_114
*277 FILLER_14_126
*278 FILLER_14_138
*279 FILLER_14_141
*280 FILLER_14_15
*281 FILLER_14_153
*282 FILLER_14_165
*283 FILLER_14_177
*284 FILLER_14_189
*285 FILLER_14_195
*286 FILLER_14_197
*287 FILLER_14_209
*288 FILLER_14_221
*289 FILLER_14_233
*290 FILLER_14_245
*291 FILLER_14_251
*292 FILLER_14_253
*293 FILLER_14_265
*294 FILLER_14_27
*295 FILLER_14_277
*296 FILLER_14_289
*297 FILLER_14_29
*298 FILLER_14_297
*299 FILLER_14_3
*300 FILLER_14_41
*301 FILLER_14_53
*302 FILLER_14_65
*303 FILLER_14_71
*304 FILLER_14_78
*305 FILLER_14_85
*306 FILLER_14_97
*307 FILLER_15_101
*308 FILLER_15_109
*309 FILLER_15_113
*310 FILLER_15_125
*311 FILLER_15_137
*312 FILLER_15_149
*313 FILLER_15_15
*314 FILLER_15_161
*315 FILLER_15_167
*316 FILLER_15_169
*317 FILLER_15_181
*318 FILLER_15_193
*319 FILLER_15_205
*320 FILLER_15_217
*321 FILLER_15_223
*322 FILLER_15_225
*323 FILLER_15_237
*324 FILLER_15_249
*325 FILLER_15_261
*326 FILLER_15_27
*327 FILLER_15_273
*328 FILLER_15_279
*329 FILLER_15_281
*330 FILLER_15_293
*331 FILLER_15_3
*332 FILLER_15_39
*333 FILLER_15_51
*334 FILLER_15_55
*335 FILLER_15_57
*336 FILLER_15_78
*337 FILLER_15_89
*338 FILLER_16_106
*339 FILLER_16_118
*340 FILLER_16_130
*341 FILLER_16_138
*342 FILLER_16_141
*343 FILLER_16_153
*344 FILLER_16_165
*345 FILLER_16_177
*346 FILLER_16_189
*347 FILLER_16_195
*348 FILLER_16_197
*349 FILLER_16_209
*350 FILLER_16_21
*351 FILLER_16_221
*352 FILLER_16_233
*353 FILLER_16_245
*354 FILLER_16_251
*355 FILLER_16_253
*356 FILLER_16_265
*357 FILLER_16_27
*358 FILLER_16_277
*359 FILLER_16_289
*360 FILLER_16_29
*361 FILLER_16_297
*362 FILLER_16_3
*363 FILLER_16_41
*364 FILLER_16_53
*365 FILLER_16_65
*366 FILLER_16_77
*367 FILLER_16_83
*368 FILLER_16_85
*369 FILLER_16_9
*370 FILLER_16_91
*371 FILLER_17_105
*372 FILLER_17_111
*373 FILLER_17_113
*374 FILLER_17_12
*375 FILLER_17_125
*376 FILLER_17_137
*377 FILLER_17_148
*378 FILLER_17_160
*379 FILLER_17_169
*380 FILLER_17_181
*381 FILLER_17_193
*382 FILLER_17_205
*383 FILLER_17_217
*384 FILLER_17_223
*385 FILLER_17_225
*386 FILLER_17_237
*387 FILLER_17_24
*388 FILLER_17_249
*389 FILLER_17_261
*390 FILLER_17_273
*391 FILLER_17_279
*392 FILLER_17_281
*393 FILLER_17_293
*394 FILLER_17_3
*395 FILLER_17_36
*396 FILLER_17_48
*397 FILLER_17_57
*398 FILLER_17_69
*399 FILLER_17_81
*400 FILLER_17_93
*401 FILLER_18_109
*402 FILLER_18_121
*403 FILLER_18_133
*404 FILLER_18_139
*405 FILLER_18_141
*406 FILLER_18_149
*407 FILLER_18_15
*408 FILLER_18_161
*409 FILLER_18_173
*410 FILLER_18_185
*411 FILLER_18_193
*412 FILLER_18_197
*413 FILLER_18_209
*414 FILLER_18_221
*415 FILLER_18_233
*416 FILLER_18_245
*417 FILLER_18_251
*418 FILLER_18_253
*419 FILLER_18_265
*420 FILLER_18_27
*421 FILLER_18_277
*422 FILLER_18_289
*423 FILLER_18_29
*424 FILLER_18_297
*425 FILLER_18_3
*426 FILLER_18_41
*427 FILLER_18_48
*428 FILLER_18_59
*429 FILLER_18_71
*430 FILLER_18_83
*431 FILLER_18_85
*432 FILLER_18_97
*433 FILLER_19_105
*434 FILLER_19_111
*435 FILLER_19_113
*436 FILLER_19_124
*437 FILLER_19_136
*438 FILLER_19_148
*439 FILLER_19_15
*440 FILLER_19_160
*441 FILLER_19_169
*442 FILLER_19_181
*443 FILLER_19_193
*444 FILLER_19_205
*445 FILLER_19_217
*446 FILLER_19_223
*447 FILLER_19_225
*448 FILLER_19_237
*449 FILLER_19_249
*450 FILLER_19_261
*451 FILLER_19_27
*452 FILLER_19_273
*453 FILLER_19_279
*454 FILLER_19_281
*455 FILLER_19_293
*456 FILLER_19_3
*457 FILLER_19_39
*458 FILLER_19_51
*459 FILLER_19_55
*460 FILLER_19_57
*461 FILLER_19_69
*462 FILLER_19_81
*463 FILLER_19_93
*464 FILLER_1_101
*465 FILLER_1_108
*466 FILLER_1_113
*467 FILLER_1_119
*468 FILLER_1_129
*469 FILLER_1_141
*470 FILLER_1_146
*471 FILLER_1_15
*472 FILLER_1_159
*473 FILLER_1_167
*474 FILLER_1_169
*475 FILLER_1_176
*476 FILLER_1_188
*477 FILLER_1_200
*478 FILLER_1_208
*479 FILLER_1_216
*480 FILLER_1_225
*481 FILLER_1_237
*482 FILLER_1_249
*483 FILLER_1_261
*484 FILLER_1_273
*485 FILLER_1_279
*486 FILLER_1_281
*487 FILLER_1_293
*488 FILLER_1_3
*489 FILLER_1_36
*490 FILLER_1_48
*491 FILLER_1_54
*492 FILLER_1_57
*493 FILLER_1_64
*494 FILLER_1_70
*495 FILLER_1_80
*496 FILLER_20_109
*497 FILLER_20_121
*498 FILLER_20_133
*499 FILLER_20_139
*500 FILLER_20_141
*501 FILLER_20_153
*502 FILLER_20_165
*503 FILLER_20_177
*504 FILLER_20_189
*505 FILLER_20_195
*506 FILLER_20_197
*507 FILLER_20_209
*508 FILLER_20_21
*509 FILLER_20_221
*510 FILLER_20_233
*511 FILLER_20_245
*512 FILLER_20_251
*513 FILLER_20_253
*514 FILLER_20_265
*515 FILLER_20_27
*516 FILLER_20_277
*517 FILLER_20_289
*518 FILLER_20_29
*519 FILLER_20_297
*520 FILLER_20_3
*521 FILLER_20_41
*522 FILLER_20_53
*523 FILLER_20_65
*524 FILLER_20_77
*525 FILLER_20_83
*526 FILLER_20_85
*527 FILLER_20_9
*528 FILLER_20_97
*529 FILLER_21_105
*530 FILLER_21_111
*531 FILLER_21_113
*532 FILLER_21_125
*533 FILLER_21_137
*534 FILLER_21_149
*535 FILLER_21_15
*536 FILLER_21_161
*537 FILLER_21_167
*538 FILLER_21_169
*539 FILLER_21_181
*540 FILLER_21_193
*541 FILLER_21_205
*542 FILLER_21_217
*543 FILLER_21_223
*544 FILLER_21_225
*545 FILLER_21_237
*546 FILLER_21_249
*547 FILLER_21_261
*548 FILLER_21_27
*549 FILLER_21_273
*550 FILLER_21_279
*551 FILLER_21_281
*552 FILLER_21_293
*553 FILLER_21_3
*554 FILLER_21_39
*555 FILLER_21_51
*556 FILLER_21_55
*557 FILLER_21_57
*558 FILLER_21_69
*559 FILLER_21_81
*560 FILLER_21_93
*561 FILLER_22_103
*562 FILLER_22_109
*563 FILLER_22_121
*564 FILLER_22_133
*565 FILLER_22_139
*566 FILLER_22_141
*567 FILLER_22_15
*568 FILLER_22_153
*569 FILLER_22_165
*570 FILLER_22_177
*571 FILLER_22_189
*572 FILLER_22_195
*573 FILLER_22_197
*574 FILLER_22_209
*575 FILLER_22_221
*576 FILLER_22_233
*577 FILLER_22_245
*578 FILLER_22_251
*579 FILLER_22_253
*580 FILLER_22_265
*581 FILLER_22_27
*582 FILLER_22_277
*583 FILLER_22_289
*584 FILLER_22_29
*585 FILLER_22_297
*586 FILLER_22_3
*587 FILLER_22_41
*588 FILLER_22_53
*589 FILLER_22_65
*590 FILLER_22_77
*591 FILLER_22_83
*592 FILLER_22_85
*593 FILLER_22_97
*594 FILLER_23_108
*595 FILLER_23_113
*596 FILLER_23_125
*597 FILLER_23_137
*598 FILLER_23_149
*599 FILLER_23_15
*600 FILLER_23_161
*601 FILLER_23_167
*602 FILLER_23_169
*603 FILLER_23_181
*604 FILLER_23_193
*605 FILLER_23_200
*606 FILLER_23_212
*607 FILLER_23_225
*608 FILLER_23_237
*609 FILLER_23_249
*610 FILLER_23_261
*611 FILLER_23_27
*612 FILLER_23_273
*613 FILLER_23_279
*614 FILLER_23_281
*615 FILLER_23_293
*616 FILLER_23_3
*617 FILLER_23_39
*618 FILLER_23_51
*619 FILLER_23_55
*620 FILLER_23_57
*621 FILLER_23_69
*622 FILLER_23_81
*623 FILLER_23_89
*624 FILLER_23_96
*625 FILLER_24_109
*626 FILLER_24_121
*627 FILLER_24_133
*628 FILLER_24_139
*629 FILLER_24_141
*630 FILLER_24_153
*631 FILLER_24_165
*632 FILLER_24_177
*633 FILLER_24_189
*634 FILLER_24_195
*635 FILLER_24_197
*636 FILLER_24_209
*637 FILLER_24_21
*638 FILLER_24_221
*639 FILLER_24_233
*640 FILLER_24_245
*641 FILLER_24_251
*642 FILLER_24_253
*643 FILLER_24_265
*644 FILLER_24_27
*645 FILLER_24_277
*646 FILLER_24_289
*647 FILLER_24_29
*648 FILLER_24_297
*649 FILLER_24_3
*650 FILLER_24_41
*651 FILLER_24_53
*652 FILLER_24_65
*653 FILLER_24_77
*654 FILLER_24_83
*655 FILLER_24_85
*656 FILLER_24_9
*657 FILLER_24_97
*658 FILLER_25_105
*659 FILLER_25_111
*660 FILLER_25_113
*661 FILLER_25_125
*662 FILLER_25_129
*663 FILLER_25_136
*664 FILLER_25_148
*665 FILLER_25_15
*666 FILLER_25_160
*667 FILLER_25_169
*668 FILLER_25_181
*669 FILLER_25_193
*670 FILLER_25_205
*671 FILLER_25_217
*672 FILLER_25_223
*673 FILLER_25_225
*674 FILLER_25_237
*675 FILLER_25_249
*676 FILLER_25_261
*677 FILLER_25_27
*678 FILLER_25_273
*679 FILLER_25_279
*680 FILLER_25_281
*681 FILLER_25_293
*682 FILLER_25_3
*683 FILLER_25_39
*684 FILLER_25_51
*685 FILLER_25_55
*686 FILLER_25_57
*687 FILLER_25_69
*688 FILLER_25_81
*689 FILLER_25_93
*690 FILLER_26_109
*691 FILLER_26_121
*692 FILLER_26_133
*693 FILLER_26_139
*694 FILLER_26_141
*695 FILLER_26_15
*696 FILLER_26_153
*697 FILLER_26_165
*698 FILLER_26_177
*699 FILLER_26_189
*700 FILLER_26_195
*701 FILLER_26_197
*702 FILLER_26_209
*703 FILLER_26_221
*704 FILLER_26_233
*705 FILLER_26_245
*706 FILLER_26_251
*707 FILLER_26_253
*708 FILLER_26_265
*709 FILLER_26_27
*710 FILLER_26_277
*711 FILLER_26_289
*712 FILLER_26_29
*713 FILLER_26_297
*714 FILLER_26_3
*715 FILLER_26_41
*716 FILLER_26_53
*717 FILLER_26_65
*718 FILLER_26_77
*719 FILLER_26_83
*720 FILLER_26_85
*721 FILLER_26_97
*722 FILLER_27_105
*723 FILLER_27_111
*724 FILLER_27_113
*725 FILLER_27_125
*726 FILLER_27_137
*727 FILLER_27_149
*728 FILLER_27_15
*729 FILLER_27_161
*730 FILLER_27_167
*731 FILLER_27_169
*732 FILLER_27_181
*733 FILLER_27_193
*734 FILLER_27_205
*735 FILLER_27_217
*736 FILLER_27_223
*737 FILLER_27_225
*738 FILLER_27_237
*739 FILLER_27_249
*740 FILLER_27_261
*741 FILLER_27_27
*742 FILLER_27_273
*743 FILLER_27_279
*744 FILLER_27_281
*745 FILLER_27_293
*746 FILLER_27_3
*747 FILLER_27_39
*748 FILLER_27_51
*749 FILLER_27_55
*750 FILLER_27_57
*751 FILLER_27_69
*752 FILLER_27_81
*753 FILLER_27_93
*754 FILLER_28_109
*755 FILLER_28_121
*756 FILLER_28_133
*757 FILLER_28_139
*758 FILLER_28_141
*759 FILLER_28_15
*760 FILLER_28_153
*761 FILLER_28_165
*762 FILLER_28_177
*763 FILLER_28_189
*764 FILLER_28_195
*765 FILLER_28_197
*766 FILLER_28_209
*767 FILLER_28_221
*768 FILLER_28_233
*769 FILLER_28_245
*770 FILLER_28_251
*771 FILLER_28_253
*772 FILLER_28_265
*773 FILLER_28_27
*774 FILLER_28_277
*775 FILLER_28_289
*776 FILLER_28_29
*777 FILLER_28_297
*778 FILLER_28_3
*779 FILLER_28_41
*780 FILLER_28_53
*781 FILLER_28_65
*782 FILLER_28_77
*783 FILLER_28_83
*784 FILLER_28_85
*785 FILLER_28_97
*786 FILLER_29_105
*787 FILLER_29_111
*788 FILLER_29_113
*789 FILLER_29_125
*790 FILLER_29_137
*791 FILLER_29_149
*792 FILLER_29_15
*793 FILLER_29_161
*794 FILLER_29_167
*795 FILLER_29_169
*796 FILLER_29_181
*797 FILLER_29_193
*798 FILLER_29_205
*799 FILLER_29_217
*800 FILLER_29_223
*801 FILLER_29_225
*802 FILLER_29_237
*803 FILLER_29_249
*804 FILLER_29_261
*805 FILLER_29_27
*806 FILLER_29_273
*807 FILLER_29_279
*808 FILLER_29_281
*809 FILLER_29_293
*810 FILLER_29_3
*811 FILLER_29_39
*812 FILLER_29_51
*813 FILLER_29_55
*814 FILLER_29_57
*815 FILLER_29_69
*816 FILLER_29_81
*817 FILLER_29_93
*818 FILLER_2_106
*819 FILLER_2_115
*820 FILLER_2_127
*821 FILLER_2_139
*822 FILLER_2_141
*823 FILLER_2_152
*824 FILLER_2_164
*825 FILLER_2_176
*826 FILLER_2_188
*827 FILLER_2_197
*828 FILLER_2_209
*829 FILLER_2_21
*830 FILLER_2_221
*831 FILLER_2_233
*832 FILLER_2_245
*833 FILLER_2_251
*834 FILLER_2_253
*835 FILLER_2_265
*836 FILLER_2_27
*837 FILLER_2_277
*838 FILLER_2_289
*839 FILLER_2_29
*840 FILLER_2_297
*841 FILLER_2_3
*842 FILLER_2_50
*843 FILLER_2_70
*844 FILLER_2_81
*845 FILLER_2_85
*846 FILLER_2_93
*847 FILLER_2_98
*848 FILLER_30_109
*849 FILLER_30_121
*850 FILLER_30_133
*851 FILLER_30_139
*852 FILLER_30_141
*853 FILLER_30_15
*854 FILLER_30_153
*855 FILLER_30_165
*856 FILLER_30_177
*857 FILLER_30_189
*858 FILLER_30_195
*859 FILLER_30_197
*860 FILLER_30_209
*861 FILLER_30_221
*862 FILLER_30_233
*863 FILLER_30_245
*864 FILLER_30_251
*865 FILLER_30_253
*866 FILLER_30_265
*867 FILLER_30_27
*868 FILLER_30_277
*869 FILLER_30_289
*870 FILLER_30_29
*871 FILLER_30_297
*872 FILLER_30_3
*873 FILLER_30_41
*874 FILLER_30_53
*875 FILLER_30_65
*876 FILLER_30_77
*877 FILLER_30_83
*878 FILLER_30_85
*879 FILLER_30_97
*880 FILLER_31_105
*881 FILLER_31_111
*882 FILLER_31_113
*883 FILLER_31_125
*884 FILLER_31_137
*885 FILLER_31_149
*886 FILLER_31_15
*887 FILLER_31_161
*888 FILLER_31_167
*889 FILLER_31_169
*890 FILLER_31_181
*891 FILLER_31_193
*892 FILLER_31_205
*893 FILLER_31_217
*894 FILLER_31_223
*895 FILLER_31_225
*896 FILLER_31_237
*897 FILLER_31_249
*898 FILLER_31_261
*899 FILLER_31_27
*900 FILLER_31_273
*901 FILLER_31_279
*902 FILLER_31_281
*903 FILLER_31_293
*904 FILLER_31_3
*905 FILLER_31_39
*906 FILLER_31_51
*907 FILLER_31_55
*908 FILLER_31_57
*909 FILLER_31_69
*910 FILLER_31_81
*911 FILLER_31_93
*912 FILLER_32_109
*913 FILLER_32_121
*914 FILLER_32_133
*915 FILLER_32_139
*916 FILLER_32_141
*917 FILLER_32_15
*918 FILLER_32_153
*919 FILLER_32_165
*920 FILLER_32_177
*921 FILLER_32_189
*922 FILLER_32_195
*923 FILLER_32_197
*924 FILLER_32_209
*925 FILLER_32_221
*926 FILLER_32_233
*927 FILLER_32_245
*928 FILLER_32_251
*929 FILLER_32_253
*930 FILLER_32_265
*931 FILLER_32_27
*932 FILLER_32_277
*933 FILLER_32_289
*934 FILLER_32_29
*935 FILLER_32_297
*936 FILLER_32_3
*937 FILLER_32_41
*938 FILLER_32_53
*939 FILLER_32_65
*940 FILLER_32_77
*941 FILLER_32_83
*942 FILLER_32_85
*943 FILLER_32_97
*944 FILLER_33_105
*945 FILLER_33_111
*946 FILLER_33_113
*947 FILLER_33_125
*948 FILLER_33_137
*949 FILLER_33_149
*950 FILLER_33_15
*951 FILLER_33_161
*952 FILLER_33_167
*953 FILLER_33_169
*954 FILLER_33_181
*955 FILLER_33_193
*956 FILLER_33_205
*957 FILLER_33_217
*958 FILLER_33_223
*959 FILLER_33_225
*960 FILLER_33_237
*961 FILLER_33_249
*962 FILLER_33_261
*963 FILLER_33_27
*964 FILLER_33_273
*965 FILLER_33_279
*966 FILLER_33_281
*967 FILLER_33_293
*968 FILLER_33_3
*969 FILLER_33_39
*970 FILLER_33_51
*971 FILLER_33_55
*972 FILLER_33_57
*973 FILLER_33_69
*974 FILLER_33_81
*975 FILLER_33_93
*976 FILLER_34_109
*977 FILLER_34_121
*978 FILLER_34_133
*979 FILLER_34_139
*980 FILLER_34_141
*981 FILLER_34_15
*982 FILLER_34_153
*983 FILLER_34_165
*984 FILLER_34_177
*985 FILLER_34_189
*986 FILLER_34_195
*987 FILLER_34_197
*988 FILLER_34_209
*989 FILLER_34_221
*990 FILLER_34_233
*991 FILLER_34_245
*992 FILLER_34_251
*993 FILLER_34_253
*994 FILLER_34_265
*995 FILLER_34_27
*996 FILLER_34_277
*997 FILLER_34_289
*998 FILLER_34_29
*999 FILLER_34_297
*1000 FILLER_34_3
*1001 FILLER_34_41
*1002 FILLER_34_53
*1003 FILLER_34_65
*1004 FILLER_34_77
*1005 FILLER_34_83
*1006 FILLER_34_85
*1007 FILLER_34_97
*1008 FILLER_35_105
*1009 FILLER_35_111
*1010 FILLER_35_113
*1011 FILLER_35_125
*1012 FILLER_35_137
*1013 FILLER_35_149
*1014 FILLER_35_15
*1015 FILLER_35_161
*1016 FILLER_35_167
*1017 FILLER_35_169
*1018 FILLER_35_181
*1019 FILLER_35_193
*1020 FILLER_35_205
*1021 FILLER_35_217
*1022 FILLER_35_223
*1023 FILLER_35_225
*1024 FILLER_35_237
*1025 FILLER_35_249
*1026 FILLER_35_261
*1027 FILLER_35_27
*1028 FILLER_35_273
*1029 FILLER_35_279
*1030 FILLER_35_281
*1031 FILLER_35_293
*1032 FILLER_35_3
*1033 FILLER_35_39
*1034 FILLER_35_51
*1035 FILLER_35_55
*1036 FILLER_35_57
*1037 FILLER_35_69
*1038 FILLER_35_81
*1039 FILLER_35_93
*1040 FILLER_36_109
*1041 FILLER_36_121
*1042 FILLER_36_133
*1043 FILLER_36_139
*1044 FILLER_36_141
*1045 FILLER_36_15
*1046 FILLER_36_153
*1047 FILLER_36_165
*1048 FILLER_36_177
*1049 FILLER_36_189
*1050 FILLER_36_195
*1051 FILLER_36_197
*1052 FILLER_36_209
*1053 FILLER_36_221
*1054 FILLER_36_233
*1055 FILLER_36_245
*1056 FILLER_36_251
*1057 FILLER_36_253
*1058 FILLER_36_265
*1059 FILLER_36_27
*1060 FILLER_36_277
*1061 FILLER_36_289
*1062 FILLER_36_29
*1063 FILLER_36_297
*1064 FILLER_36_3
*1065 FILLER_36_41
*1066 FILLER_36_53
*1067 FILLER_36_65
*1068 FILLER_36_77
*1069 FILLER_36_83
*1070 FILLER_36_85
*1071 FILLER_36_97
*1072 FILLER_37_105
*1073 FILLER_37_111
*1074 FILLER_37_113
*1075 FILLER_37_125
*1076 FILLER_37_137
*1077 FILLER_37_149
*1078 FILLER_37_15
*1079 FILLER_37_161
*1080 FILLER_37_167
*1081 FILLER_37_169
*1082 FILLER_37_181
*1083 FILLER_37_193
*1084 FILLER_37_205
*1085 FILLER_37_217
*1086 FILLER_37_223
*1087 FILLER_37_225
*1088 FILLER_37_237
*1089 FILLER_37_249
*1090 FILLER_37_261
*1091 FILLER_37_27
*1092 FILLER_37_273
*1093 FILLER_37_279
*1094 FILLER_37_281
*1095 FILLER_37_293
*1096 FILLER_37_3
*1097 FILLER_37_39
*1098 FILLER_37_51
*1099 FILLER_37_55
*1100 FILLER_37_57
*1101 FILLER_37_69
*1102 FILLER_37_81
*1103 FILLER_37_93
*1104 FILLER_38_109
*1105 FILLER_38_121
*1106 FILLER_38_133
*1107 FILLER_38_139
*1108 FILLER_38_141
*1109 FILLER_38_15
*1110 FILLER_38_153
*1111 FILLER_38_165
*1112 FILLER_38_177
*1113 FILLER_38_189
*1114 FILLER_38_195
*1115 FILLER_38_197
*1116 FILLER_38_209
*1117 FILLER_38_221
*1118 FILLER_38_233
*1119 FILLER_38_245
*1120 FILLER_38_251
*1121 FILLER_38_253
*1122 FILLER_38_265
*1123 FILLER_38_27
*1124 FILLER_38_277
*1125 FILLER_38_289
*1126 FILLER_38_29
*1127 FILLER_38_297
*1128 FILLER_38_3
*1129 FILLER_38_41
*1130 FILLER_38_53
*1131 FILLER_38_65
*1132 FILLER_38_77
*1133 FILLER_38_83
*1134 FILLER_38_85
*1135 FILLER_38_97
*1136 FILLER_39_105
*1137 FILLER_39_111
*1138 FILLER_39_113
*1139 FILLER_39_125
*1140 FILLER_39_137
*1141 FILLER_39_149
*1142 FILLER_39_15
*1143 FILLER_39_161
*1144 FILLER_39_167
*1145 FILLER_39_169
*1146 FILLER_39_181
*1147 FILLER_39_193
*1148 FILLER_39_205
*1149 FILLER_39_217
*1150 FILLER_39_223
*1151 FILLER_39_225
*1152 FILLER_39_237
*1153 FILLER_39_249
*1154 FILLER_39_261
*1155 FILLER_39_27
*1156 FILLER_39_273
*1157 FILLER_39_279
*1158 FILLER_39_281
*1159 FILLER_39_293
*1160 FILLER_39_3
*1161 FILLER_39_39
*1162 FILLER_39_51
*1163 FILLER_39_55
*1164 FILLER_39_57
*1165 FILLER_39_69
*1166 FILLER_39_81
*1167 FILLER_39_93
*1168 FILLER_3_100
*1169 FILLER_3_110
*1170 FILLER_3_113
*1171 FILLER_3_125
*1172 FILLER_3_137
*1173 FILLER_3_149
*1174 FILLER_3_15
*1175 FILLER_3_161
*1176 FILLER_3_167
*1177 FILLER_3_169
*1178 FILLER_3_177
*1179 FILLER_3_189
*1180 FILLER_3_201
*1181 FILLER_3_213
*1182 FILLER_3_221
*1183 FILLER_3_225
*1184 FILLER_3_237
*1185 FILLER_3_249
*1186 FILLER_3_261
*1187 FILLER_3_273
*1188 FILLER_3_279
*1189 FILLER_3_281
*1190 FILLER_3_293
*1191 FILLER_3_3
*1192 FILLER_3_35
*1193 FILLER_3_47
*1194 FILLER_3_54
*1195 FILLER_3_57
*1196 FILLER_3_64
*1197 FILLER_3_72
*1198 FILLER_3_80
*1199 FILLER_3_88
*1200 FILLER_40_109
*1201 FILLER_40_121
*1202 FILLER_40_133
*1203 FILLER_40_139
*1204 FILLER_40_141
*1205 FILLER_40_15
*1206 FILLER_40_153
*1207 FILLER_40_165
*1208 FILLER_40_177
*1209 FILLER_40_189
*1210 FILLER_40_195
*1211 FILLER_40_197
*1212 FILLER_40_209
*1213 FILLER_40_221
*1214 FILLER_40_233
*1215 FILLER_40_245
*1216 FILLER_40_251
*1217 FILLER_40_253
*1218 FILLER_40_265
*1219 FILLER_40_27
*1220 FILLER_40_277
*1221 FILLER_40_289
*1222 FILLER_40_29
*1223 FILLER_40_297
*1224 FILLER_40_3
*1225 FILLER_40_41
*1226 FILLER_40_53
*1227 FILLER_40_65
*1228 FILLER_40_77
*1229 FILLER_40_83
*1230 FILLER_40_85
*1231 FILLER_40_97
*1232 FILLER_41_105
*1233 FILLER_41_111
*1234 FILLER_41_113
*1235 FILLER_41_125
*1236 FILLER_41_137
*1237 FILLER_41_149
*1238 FILLER_41_15
*1239 FILLER_41_161
*1240 FILLER_41_167
*1241 FILLER_41_169
*1242 FILLER_41_181
*1243 FILLER_41_193
*1244 FILLER_41_205
*1245 FILLER_41_217
*1246 FILLER_41_223
*1247 FILLER_41_225
*1248 FILLER_41_237
*1249 FILLER_41_249
*1250 FILLER_41_261
*1251 FILLER_41_27
*1252 FILLER_41_273
*1253 FILLER_41_279
*1254 FILLER_41_281
*1255 FILLER_41_293
*1256 FILLER_41_3
*1257 FILLER_41_39
*1258 FILLER_41_51
*1259 FILLER_41_55
*1260 FILLER_41_57
*1261 FILLER_41_69
*1262 FILLER_41_81
*1263 FILLER_41_93
*1264 FILLER_42_109
*1265 FILLER_42_121
*1266 FILLER_42_133
*1267 FILLER_42_139
*1268 FILLER_42_141
*1269 FILLER_42_15
*1270 FILLER_42_153
*1271 FILLER_42_165
*1272 FILLER_42_177
*1273 FILLER_42_189
*1274 FILLER_42_195
*1275 FILLER_42_197
*1276 FILLER_42_209
*1277 FILLER_42_221
*1278 FILLER_42_233
*1279 FILLER_42_245
*1280 FILLER_42_251
*1281 FILLER_42_253
*1282 FILLER_42_265
*1283 FILLER_42_27
*1284 FILLER_42_277
*1285 FILLER_42_289
*1286 FILLER_42_29
*1287 FILLER_42_297
*1288 FILLER_42_3
*1289 FILLER_42_41
*1290 FILLER_42_53
*1291 FILLER_42_65
*1292 FILLER_42_77
*1293 FILLER_42_83
*1294 FILLER_42_85
*1295 FILLER_42_97
*1296 FILLER_43_105
*1297 FILLER_43_111
*1298 FILLER_43_113
*1299 FILLER_43_125
*1300 FILLER_43_137
*1301 FILLER_43_149
*1302 FILLER_43_15
*1303 FILLER_43_161
*1304 FILLER_43_167
*1305 FILLER_43_169
*1306 FILLER_43_181
*1307 FILLER_43_193
*1308 FILLER_43_205
*1309 FILLER_43_217
*1310 FILLER_43_223
*1311 FILLER_43_225
*1312 FILLER_43_237
*1313 FILLER_43_249
*1314 FILLER_43_261
*1315 FILLER_43_27
*1316 FILLER_43_273
*1317 FILLER_43_279
*1318 FILLER_43_281
*1319 FILLER_43_293
*1320 FILLER_43_3
*1321 FILLER_43_39
*1322 FILLER_43_51
*1323 FILLER_43_55
*1324 FILLER_43_57
*1325 FILLER_43_69
*1326 FILLER_43_81
*1327 FILLER_43_93
*1328 FILLER_44_109
*1329 FILLER_44_121
*1330 FILLER_44_133
*1331 FILLER_44_139
*1332 FILLER_44_141
*1333 FILLER_44_15
*1334 FILLER_44_153
*1335 FILLER_44_165
*1336 FILLER_44_177
*1337 FILLER_44_189
*1338 FILLER_44_195
*1339 FILLER_44_197
*1340 FILLER_44_209
*1341 FILLER_44_221
*1342 FILLER_44_233
*1343 FILLER_44_245
*1344 FILLER_44_251
*1345 FILLER_44_253
*1346 FILLER_44_265
*1347 FILLER_44_27
*1348 FILLER_44_277
*1349 FILLER_44_289
*1350 FILLER_44_29
*1351 FILLER_44_297
*1352 FILLER_44_3
*1353 FILLER_44_41
*1354 FILLER_44_53
*1355 FILLER_44_65
*1356 FILLER_44_77
*1357 FILLER_44_83
*1358 FILLER_44_85
*1359 FILLER_44_97
*1360 FILLER_45_105
*1361 FILLER_45_111
*1362 FILLER_45_113
*1363 FILLER_45_125
*1364 FILLER_45_137
*1365 FILLER_45_149
*1366 FILLER_45_15
*1367 FILLER_45_161
*1368 FILLER_45_167
*1369 FILLER_45_169
*1370 FILLER_45_181
*1371 FILLER_45_193
*1372 FILLER_45_205
*1373 FILLER_45_217
*1374 FILLER_45_223
*1375 FILLER_45_225
*1376 FILLER_45_237
*1377 FILLER_45_249
*1378 FILLER_45_261
*1379 FILLER_45_27
*1380 FILLER_45_273
*1381 FILLER_45_279
*1382 FILLER_45_281
*1383 FILLER_45_293
*1384 FILLER_45_3
*1385 FILLER_45_39
*1386 FILLER_45_51
*1387 FILLER_45_55
*1388 FILLER_45_57
*1389 FILLER_45_69
*1390 FILLER_45_81
*1391 FILLER_45_93
*1392 FILLER_46_109
*1393 FILLER_46_121
*1394 FILLER_46_133
*1395 FILLER_46_139
*1396 FILLER_46_141
*1397 FILLER_46_15
*1398 FILLER_46_153
*1399 FILLER_46_165
*1400 FILLER_46_177
*1401 FILLER_46_189
*1402 FILLER_46_195
*1403 FILLER_46_197
*1404 FILLER_46_209
*1405 FILLER_46_221
*1406 FILLER_46_233
*1407 FILLER_46_245
*1408 FILLER_46_251
*1409 FILLER_46_253
*1410 FILLER_46_265
*1411 FILLER_46_27
*1412 FILLER_46_277
*1413 FILLER_46_289
*1414 FILLER_46_29
*1415 FILLER_46_297
*1416 FILLER_46_3
*1417 FILLER_46_41
*1418 FILLER_46_53
*1419 FILLER_46_65
*1420 FILLER_46_77
*1421 FILLER_46_83
*1422 FILLER_46_85
*1423 FILLER_46_97
*1424 FILLER_47_105
*1425 FILLER_47_111
*1426 FILLER_47_113
*1427 FILLER_47_125
*1428 FILLER_47_137
*1429 FILLER_47_149
*1430 FILLER_47_15
*1431 FILLER_47_161
*1432 FILLER_47_167
*1433 FILLER_47_169
*1434 FILLER_47_181
*1435 FILLER_47_193
*1436 FILLER_47_205
*1437 FILLER_47_217
*1438 FILLER_47_223
*1439 FILLER_47_225
*1440 FILLER_47_237
*1441 FILLER_47_249
*1442 FILLER_47_261
*1443 FILLER_47_27
*1444 FILLER_47_273
*1445 FILLER_47_279
*1446 FILLER_47_281
*1447 FILLER_47_293
*1448 FILLER_47_3
*1449 FILLER_47_39
*1450 FILLER_47_51
*1451 FILLER_47_55
*1452 FILLER_47_57
*1453 FILLER_47_69
*1454 FILLER_47_81
*1455 FILLER_47_93
*1456 FILLER_48_109
*1457 FILLER_48_121
*1458 FILLER_48_133
*1459 FILLER_48_139
*1460 FILLER_48_141
*1461 FILLER_48_15
*1462 FILLER_48_153
*1463 FILLER_48_165
*1464 FILLER_48_177
*1465 FILLER_48_189
*1466 FILLER_48_195
*1467 FILLER_48_197
*1468 FILLER_48_209
*1469 FILLER_48_221
*1470 FILLER_48_233
*1471 FILLER_48_245
*1472 FILLER_48_251
*1473 FILLER_48_253
*1474 FILLER_48_265
*1475 FILLER_48_27
*1476 FILLER_48_277
*1477 FILLER_48_289
*1478 FILLER_48_29
*1479 FILLER_48_297
*1480 FILLER_48_3
*1481 FILLER_48_41
*1482 FILLER_48_53
*1483 FILLER_48_65
*1484 FILLER_48_77
*1485 FILLER_48_83
*1486 FILLER_48_85
*1487 FILLER_48_97
*1488 FILLER_49_105
*1489 FILLER_49_111
*1490 FILLER_49_113
*1491 FILLER_49_125
*1492 FILLER_49_137
*1493 FILLER_49_149
*1494 FILLER_49_15
*1495 FILLER_49_161
*1496 FILLER_49_167
*1497 FILLER_49_169
*1498 FILLER_49_181
*1499 FILLER_49_193
*1500 FILLER_49_205
*1501 FILLER_49_217
*1502 FILLER_49_223
*1503 FILLER_49_225
*1504 FILLER_49_237
*1505 FILLER_49_249
*1506 FILLER_49_261
*1507 FILLER_49_27
*1508 FILLER_49_273
*1509 FILLER_49_279
*1510 FILLER_49_281
*1511 FILLER_49_293
*1512 FILLER_49_3
*1513 FILLER_49_39
*1514 FILLER_49_51
*1515 FILLER_49_55
*1516 FILLER_49_57
*1517 FILLER_49_69
*1518 FILLER_49_81
*1519 FILLER_49_93
*1520 FILLER_4_109
*1521 FILLER_4_121
*1522 FILLER_4_133
*1523 FILLER_4_139
*1524 FILLER_4_141
*1525 FILLER_4_153
*1526 FILLER_4_165
*1527 FILLER_4_177
*1528 FILLER_4_189
*1529 FILLER_4_195
*1530 FILLER_4_197
*1531 FILLER_4_209
*1532 FILLER_4_22
*1533 FILLER_4_221
*1534 FILLER_4_233
*1535 FILLER_4_245
*1536 FILLER_4_251
*1537 FILLER_4_253
*1538 FILLER_4_265
*1539 FILLER_4_277
*1540 FILLER_4_289
*1541 FILLER_4_29
*1542 FILLER_4_297
*1543 FILLER_4_3
*1544 FILLER_4_50
*1545 FILLER_4_58
*1546 FILLER_4_68
*1547 FILLER_4_74
*1548 FILLER_4_80
*1549 FILLER_4_85
*1550 FILLER_4_97
*1551 FILLER_50_109
*1552 FILLER_50_121
*1553 FILLER_50_133
*1554 FILLER_50_139
*1555 FILLER_50_141
*1556 FILLER_50_15
*1557 FILLER_50_153
*1558 FILLER_50_165
*1559 FILLER_50_177
*1560 FILLER_50_189
*1561 FILLER_50_195
*1562 FILLER_50_197
*1563 FILLER_50_209
*1564 FILLER_50_221
*1565 FILLER_50_233
*1566 FILLER_50_245
*1567 FILLER_50_251
*1568 FILLER_50_253
*1569 FILLER_50_265
*1570 FILLER_50_27
*1571 FILLER_50_277
*1572 FILLER_50_289
*1573 FILLER_50_29
*1574 FILLER_50_297
*1575 FILLER_50_3
*1576 FILLER_50_41
*1577 FILLER_50_53
*1578 FILLER_50_65
*1579 FILLER_50_77
*1580 FILLER_50_83
*1581 FILLER_50_85
*1582 FILLER_50_97
*1583 FILLER_51_105
*1584 FILLER_51_111
*1585 FILLER_51_113
*1586 FILLER_51_125
*1587 FILLER_51_137
*1588 FILLER_51_149
*1589 FILLER_51_15
*1590 FILLER_51_161
*1591 FILLER_51_167
*1592 FILLER_51_169
*1593 FILLER_51_181
*1594 FILLER_51_193
*1595 FILLER_51_205
*1596 FILLER_51_217
*1597 FILLER_51_223
*1598 FILLER_51_225
*1599 FILLER_51_237
*1600 FILLER_51_249
*1601 FILLER_51_261
*1602 FILLER_51_27
*1603 FILLER_51_273
*1604 FILLER_51_279
*1605 FILLER_51_281
*1606 FILLER_51_293
*1607 FILLER_51_3
*1608 FILLER_51_39
*1609 FILLER_51_51
*1610 FILLER_51_55
*1611 FILLER_51_57
*1612 FILLER_51_69
*1613 FILLER_51_81