*SPEF "ieee 1481-1999"
*DESIGN "gregdavill_clock_top"
*DATE "11:11:11 Fri 11 11, 1111"
*VENDOR "OpenRCX"
*PROGRAM "Parallel Extraction"
*VERSION "1.0"
*DESIGN_FLOW "NAME_SCOPE LOCAL" "PIN_CAP NONE"
*DIVIDER /
*DELIMITER :
*BUS_DELIMITER []
*T_UNIT 1 NS
*C_UNIT 1 PF
*R_UNIT 1 OHM
*L_UNIT 1 HENRY

*NAME_MAP
*1 io_in[0]
*2 io_in[1]
*3 io_in[2]
*4 io_in[3]
*5 io_in[4]
*6 io_in[5]
*7 io_in[6]
*8 io_in[7]
*9 io_out[0]
*10 io_out[1]
*11 io_out[2]
*12 net4
*13 net5
*14 net6
*15 net7
*16 net8
*19 _000_
*20 _001_
*21 _002_
*22 _003_
*23 _004_
*24 _005_
*25 _006_
*26 _007_
*27 _008_
*28 _009_
*29 _010_
*30 _011_
*31 _012_
*32 _013_
*33 _014_
*34 _015_
*35 _016_
*36 _017_
*37 _018_
*38 _019_
*39 _020_
*40 _021_
*41 _022_
*42 _023_
*43 _024_
*44 _025_
*45 _026_
*46 _027_
*47 _028_
*48 _029_
*49 _030_
*50 _031_
*51 _032_
*52 _033_
*53 _034_
*54 _035_
*55 _036_
*56 _037_
*57 _038_
*58 _039_
*59 _040_
*60 _041_
*61 _042_
*62 _043_
*63 _044_
*64 _045_
*65 _046_
*66 _047_
*67 _048_
*68 _049_
*69 _050_
*70 _051_
*71 _052_
*72 _053_
*73 _054_
*74 _055_
*75 _056_
*76 _057_
*77 _058_
*78 _059_
*79 _060_
*80 _061_
*81 _062_
*82 _063_
*83 _064_
*84 _065_
*85 _066_
*86 _067_
*87 _068_
*88 _069_
*89 _070_
*90 _071_
*91 _072_
*92 _073_
*93 _074_
*94 _075_
*95 _076_
*96 _077_
*97 _078_
*98 _079_
*99 _080_
*100 _081_
*101 _082_
*102 _083_
*103 _084_
*104 _085_
*105 _086_
*106 _087_
*107 _088_
*108 _089_
*109 _090_
*110 _091_
*111 _092_
*112 _093_
*113 _094_
*114 _095_
*115 _096_
*116 _097_
*117 _098_
*118 _099_
*119 _100_
*120 _101_
*121 _102_
*122 _103_
*123 _104_
*124 _105_
*125 _106_
*126 _107_
*127 _108_
*128 _109_
*129 _110_
*130 _111_
*131 _112_
*132 _113_
*133 _114_
*134 _115_
*135 _116_
*136 _117_
*137 _118_
*138 _119_
*139 _120_
*140 _121_
*141 _122_
*142 _123_
*143 _124_
*144 _125_
*145 _126_
*146 _127_
*147 _128_
*148 _129_
*149 _130_
*150 _131_
*151 _132_
*152 _133_
*153 _134_
*154 _135_
*155 _136_
*156 _137_
*157 _138_
*158 _139_
*159 _140_
*160 _141_
*161 _142_
*162 _143_
*163 _144_
*164 _145_
*165 _146_
*166 _147_
*167 _148_
*168 _149_
*169 _150_
*170 _151_
*171 _152_
*172 _153_
*173 _154_
*174 _155_
*175 _156_
*176 _157_
*177 _158_
*178 _159_
*179 _160_
*180 _161_
*181 _162_
*182 _163_
*183 _164_
*184 _165_
*185 _166_
*186 _167_
*187 _168_
*188 _169_
*189 _170_
*190 _171_
*191 _172_
*192 _173_
*193 _174_
*194 _175_
*195 _176_
*196 _177_
*197 _178_
*198 _179_
*199 _180_
*200 _181_
*201 _182_
*202 _183_
*203 _184_
*204 _185_
*205 _186_
*206 _187_
*207 _188_
*208 _189_
*209 _190_
*210 _191_
*211 _192_
*212 _193_
*213 _194_
*214 _195_
*215 _196_
*216 _197_
*217 _198_
*218 _199_
*219 _200_
*220 _201_
*221 _202_
*222 _203_
*223 _204_
*224 _205_
*225 _206_
*226 _207_
*227 _208_
*228 _209_
*229 _210_
*230 _211_
*231 _212_
*232 _213_
*233 _214_
*234 _215_
*235 _216_
*236 _217_
*237 _218_
*238 _219_
*239 _220_
*240 _221_
*241 _222_
*242 _223_
*243 _224_
*244 _225_
*245 _226_
*246 _227_
*247 _228_
*248 _229_
*249 clknet_0_io_in[0]
*250 clknet_2_0__leaf_io_in[0]
*251 clknet_2_1__leaf_io_in[0]
*252 clknet_2_2__leaf_io_in[0]
*253 clknet_2_3__leaf_io_in[0]
*254 clock_top\.bcd_hours\.nibble_high\.o_bcd\[0\]
*255 clock_top\.bcd_hours\.nibble_high\.o_bcd\[1\]
*256 clock_top\.bcd_hours\.nibble_high\.o_bcd\[2\]
*257 clock_top\.bcd_hours\.nibble_high\.o_bcd\[3\]
*258 clock_top\.bcd_hours\.nibble_low\.o_bcd\[0\]
*259 clock_top\.bcd_hours\.nibble_low\.o_bcd\[1\]
*260 clock_top\.bcd_hours\.nibble_low\.o_bcd\[2\]
*261 clock_top\.bcd_hours\.nibble_low\.o_bcd\[3\]
*262 clock_top\.bcd_minutes\.nibble_high\.o_bcd\[0\]
*263 clock_top\.bcd_minutes\.nibble_high\.o_bcd\[1\]
*264 clock_top\.bcd_minutes\.nibble_high\.o_bcd\[2\]
*265 clock_top\.bcd_minutes\.nibble_high\.o_bcd\[3\]
*266 clock_top\.bcd_minutes\.nibble_low\.o_bcd\[0\]
*267 clock_top\.bcd_minutes\.nibble_low\.o_bcd\[1\]
*268 clock_top\.bcd_minutes\.nibble_low\.o_bcd\[2\]
*269 clock_top\.bcd_minutes\.nibble_low\.o_bcd\[3\]
*270 clock_top\.bcd_seconds\.nibble_high\.o_bcd\[0\]
*271 clock_top\.bcd_seconds\.nibble_high\.o_bcd\[1\]
*272 clock_top\.bcd_seconds\.nibble_high\.o_bcd\[2\]
*273 clock_top\.bcd_seconds\.nibble_high\.o_bcd\[3\]
*274 clock_top\.bcd_seconds\.nibble_low\.o_bcd\[0\]
*275 clock_top\.bcd_seconds\.nibble_low\.o_bcd\[1\]
*276 clock_top\.bcd_seconds\.nibble_low\.o_bcd\[2\]
*277 clock_top\.bcd_seconds\.nibble_low\.o_bcd\[3\]
*278 clock_top\.ctrl\.counter\[0\]
*279 clock_top\.ctrl\.counter\[1\]
*280 clock_top\.ctrl\.counter\[2\]
*281 clock_top\.ctrl\.o_latch
*282 clock_top\.ctrl\.scaler\[0\]
*283 clock_top\.ctrl\.scaler\[1\]
*284 clock_top\.ctrl\.scaler\[2\]
*285 clock_top\.ctrl\.scaler\[3\]
*286 clock_top\.ctrl\.scaler\[4\]
*287 clock_top\.ctrl\.scaler\[5\]
*288 clock_top\.ctrl\.scaler\[6\]
*289 clock_top\.ctrl\.state\[0\]
*290 clock_top\.ctrl\.state\[1\]
*291 clock_top\.ctrl\.state\[2\]
*292 clock_top\.ctrl\.state\[3\]
*293 clock_top\.hour_inc_en
*294 clock_top\.minute_inc_en
*295 clock_top\.o_bit
*296 clock_top\.o_clk
*297 clock_top\.rise0\.dat_r
*298 clock_top\.rise1\.dat_r
*299 clock_top\.sr\.counter\[1\]
*300 clock_top\.sr\.counter\[2\]
*301 clock_top\.sr\.counter\[3\]
*302 clock_top\.sr\.counter\[4\]
*303 clock_top\.sr\.sr\[0\]
*304 clock_top\.sr\.sr\[1\]
*305 clock_top\.sr\.sr\[2\]
*306 clock_top\.sr\.sr\[3\]
*307 clock_top\.sr\.sr\[4\]
*308 clock_top\.sr\.sr\[5\]
*309 clock_top\.sr\.sr\[6\]
*310 net1
*311 net2
*312 net3
*313 ANTENNA_1
*314 ANTENNA_2
*315 FILLER_0_103
*316 FILLER_0_111
*317 FILLER_0_113
*318 FILLER_0_131
*319 FILLER_0_135
*320 FILLER_0_139
*321 FILLER_0_141
*322 FILLER_0_153
*323 FILLER_0_165
*324 FILLER_0_169
*325 FILLER_0_181
*326 FILLER_0_193
*327 FILLER_0_197
*328 FILLER_0_209
*329 FILLER_0_21
*330 FILLER_0_221
*331 FILLER_0_225
*332 FILLER_0_237
*333 FILLER_0_249
*334 FILLER_0_253
*335 FILLER_0_265
*336 FILLER_0_27
*337 FILLER_0_277
*338 FILLER_0_281
*339 FILLER_0_29
*340 FILLER_0_293
*341 FILLER_0_3
*342 FILLER_0_53
*343 FILLER_0_57
*344 FILLER_0_80
*345 FILLER_0_85
*346 FILLER_10_108
*347 FILLER_10_120
*348 FILLER_10_128
*349 FILLER_10_138
*350 FILLER_10_141
*351 FILLER_10_149
*352 FILLER_10_161
*353 FILLER_10_173
*354 FILLER_10_185
*355 FILLER_10_193
*356 FILLER_10_197
*357 FILLER_10_209
*358 FILLER_10_221
*359 FILLER_10_233
*360 FILLER_10_245
*361 FILLER_10_251
*362 FILLER_10_253
*363 FILLER_10_26
*364 FILLER_10_265
*365 FILLER_10_277
*366 FILLER_10_289
*367 FILLER_10_29
*368 FILLER_10_297
*369 FILLER_10_3
*370 FILLER_10_41
*371 FILLER_10_65
*372 FILLER_10_77
*373 FILLER_10_83
*374 FILLER_10_85
*375 FILLER_10_9
*376 FILLER_10_93
*377 FILLER_11_102
*378 FILLER_11_109
*379 FILLER_11_113
*380 FILLER_11_123
*381 FILLER_11_130
*382 FILLER_11_137
*383 FILLER_11_144
*384 FILLER_11_156
*385 FILLER_11_169
*386 FILLER_11_181
*387 FILLER_11_193
*388 FILLER_11_205
*389 FILLER_11_217
*390 FILLER_11_223
*391 FILLER_11_225
*392 FILLER_11_237
*393 FILLER_11_249
*394 FILLER_11_261
*395 FILLER_11_273
*396 FILLER_11_279
*397 FILLER_11_281
*398 FILLER_11_293
*399 FILLER_11_3
*400 FILLER_11_36
*401 FILLER_11_48
*402 FILLER_11_57
*403 FILLER_11_77
*404 FILLER_11_8
*405 FILLER_11_85
*406 FILLER_11_90
*407 FILLER_12_104
*408 FILLER_12_116
*409 FILLER_12_120
*410 FILLER_12_129
*411 FILLER_12_138
*412 FILLER_12_141
*413 FILLER_12_151
*414 FILLER_12_160
*415 FILLER_12_172
*416 FILLER_12_184
*417 FILLER_12_197
*418 FILLER_12_209
*419 FILLER_12_21
*420 FILLER_12_221
*421 FILLER_12_233
*422 FILLER_12_245
*423 FILLER_12_251
*424 FILLER_12_253
*425 FILLER_12_265
*426 FILLER_12_27
*427 FILLER_12_277
*428 FILLER_12_289
*429 FILLER_12_29
*430 FILLER_12_297
*431 FILLER_12_3
*432 FILLER_12_41
*433 FILLER_12_65
*434 FILLER_12_77
*435 FILLER_12_83
*436 FILLER_12_85
*437 FILLER_12_93
*438 FILLER_13_101
*439 FILLER_13_105
*440 FILLER_13_11
*441 FILLER_13_110
*442 FILLER_13_113
*443 FILLER_13_119
*444 FILLER_13_126
*445 FILLER_13_138
*446 FILLER_13_144
*447 FILLER_13_156
*448 FILLER_13_169
*449 FILLER_13_181
*450 FILLER_13_193
*451 FILLER_13_205
*452 FILLER_13_217
*453 FILLER_13_223
*454 FILLER_13_225
*455 FILLER_13_237
*456 FILLER_13_249
*457 FILLER_13_261
*458 FILLER_13_273
*459 FILLER_13_279
*460 FILLER_13_281
*461 FILLER_13_293
*462 FILLER_13_3
*463 FILLER_13_30
*464 FILLER_13_50
*465 FILLER_13_57
*466 FILLER_13_77
*467 FILLER_13_89
*468 FILLER_14_102
*469 FILLER_14_117
*470 FILLER_14_131
*471 FILLER_14_138
*472 FILLER_14_141
*473 FILLER_14_153
*474 FILLER_14_157
*475 FILLER_14_165
*476 FILLER_14_177
*477 FILLER_14_189
*478 FILLER_14_195
*479 FILLER_14_197
*480 FILLER_14_209
*481 FILLER_14_21
*482 FILLER_14_221
*483 FILLER_14_233
*484 FILLER_14_245
*485 FILLER_14_251
*486 FILLER_14_253
*487 FILLER_14_265
*488 FILLER_14_27
*489 FILLER_14_277
*490 FILLER_14_289
*491 FILLER_14_29
*492 FILLER_14_297
*493 FILLER_14_3
*494 FILLER_14_41
*495 FILLER_14_60
*496 FILLER_14_80
*497 FILLER_14_85
*498 FILLER_14_93
*499 FILLER_15_110
*500 FILLER_15_113
*501 FILLER_15_122
*502 FILLER_15_126
*503 FILLER_15_131
*504 FILLER_15_139
*505 FILLER_15_151
*506 FILLER_15_163
*507 FILLER_15_167
*508 FILLER_15_169
*509 FILLER_15_181
*510 FILLER_15_193
*511 FILLER_15_205
*512 FILLER_15_217
*513 FILLER_15_22
*514 FILLER_15_223
*515 FILLER_15_225
*516 FILLER_15_237
*517 FILLER_15_249
*518 FILLER_15_261
*519 FILLER_15_273
*520 FILLER_15_279
*521 FILLER_15_281
*522 FILLER_15_293
*523 FILLER_15_3
*524 FILLER_15_30
*525 FILLER_15_50
*526 FILLER_15_57
*527 FILLER_15_77
*528 FILLER_15_89
*529 FILLER_15_98
*530 FILLER_16_102
*531 FILLER_16_114
*532 FILLER_16_124
*533 FILLER_16_132
*534 FILLER_16_138
*535 FILLER_16_141
*536 FILLER_16_148
*537 FILLER_16_160
*538 FILLER_16_172
*539 FILLER_16_184
*540 FILLER_16_197
*541 FILLER_16_209
*542 FILLER_16_221
*543 FILLER_16_233
*544 FILLER_16_245
*545 FILLER_16_251
*546 FILLER_16_253
*547 FILLER_16_26
*548 FILLER_16_265
*549 FILLER_16_277
*550 FILLER_16_289
*551 FILLER_16_29
*552 FILLER_16_297
*553 FILLER_16_3
*554 FILLER_16_35
*555 FILLER_16_52
*556 FILLER_16_73
*557 FILLER_16_81
*558 FILLER_16_85
*559 FILLER_16_9
*560 FILLER_16_93
*561 FILLER_17_106
*562 FILLER_17_113
*563 FILLER_17_125
*564 FILLER_17_129
*565 FILLER_17_133
*566 FILLER_17_145
*567 FILLER_17_153
*568 FILLER_17_165
*569 FILLER_17_169
*570 FILLER_17_175
*571 FILLER_17_187
*572 FILLER_17_199
*573 FILLER_17_211
*574 FILLER_17_22
*575 FILLER_17_223
*576 FILLER_17_225
*577 FILLER_17_237
*578 FILLER_17_249
*579 FILLER_17_261
*580 FILLER_17_273
*581 FILLER_17_279
*582 FILLER_17_281
*583 FILLER_17_293
*584 FILLER_17_3
*585 FILLER_17_51
*586 FILLER_17_55
*587 FILLER_17_57
*588 FILLER_17_61
*589 FILLER_17_78
*590 FILLER_17_90
*591 FILLER_18_103
*592 FILLER_18_112
*593 FILLER_18_122
*594 FILLER_18_134
*595 FILLER_18_141
*596 FILLER_18_149
*597 FILLER_18_161
*598 FILLER_18_173
*599 FILLER_18_185
*600 FILLER_18_193
*601 FILLER_18_197
*602 FILLER_18_209
*603 FILLER_18_21
*604 FILLER_18_221
*605 FILLER_18_233
*606 FILLER_18_245
*607 FILLER_18_251
*608 FILLER_18_253
*609 FILLER_18_265
*610 FILLER_18_27
*611 FILLER_18_277
*612 FILLER_18_289
*613 FILLER_18_29
*614 FILLER_18_297
*615 FILLER_18_3
*616 FILLER_18_48
*617 FILLER_18_60
*618 FILLER_18_78
*619 FILLER_18_85
*620 FILLER_18_95
*621 FILLER_19_101
*622 FILLER_19_110
*623 FILLER_19_113
*624 FILLER_19_126
*625 FILLER_19_138
*626 FILLER_19_147
*627 FILLER_19_15
*628 FILLER_19_159
*629 FILLER_19_167
*630 FILLER_19_169
*631 FILLER_19_181
*632 FILLER_19_193
*633 FILLER_19_205
*634 FILLER_19_217
*635 FILLER_19_223
*636 FILLER_19_225
*637 FILLER_19_23
*638 FILLER_19_237
*639 FILLER_19_249
*640 FILLER_19_261
*641 FILLER_19_273
*642 FILLER_19_279
*643 FILLER_19_281
*644 FILLER_19_293
*645 FILLER_19_3
*646 FILLER_19_40
*647 FILLER_19_51
*648 FILLER_19_55
*649 FILLER_19_57
*650 FILLER_19_62
*651 FILLER_19_70
*652 FILLER_19_75
*653 FILLER_19_82
*654 FILLER_19_94
*655 FILLER_1_100
*656 FILLER_1_106
*657 FILLER_1_110
*658 FILLER_1_113
*659 FILLER_1_119
*660 FILLER_1_131
*661 FILLER_1_143
*662 FILLER_1_155
*663 FILLER_1_167
*664 FILLER_1_169
*665 FILLER_1_177
*666 FILLER_1_181
*667 FILLER_1_193
*668 FILLER_1_205
*669 FILLER_1_217
*670 FILLER_1_22
*671 FILLER_1_223
*672 FILLER_1_225
*673 FILLER_1_237
*674 FILLER_1_249
*675 FILLER_1_26
*676 FILLER_1_261
*677 FILLER_1_273
*678 FILLER_1_279
*679 FILLER_1_281
*680 FILLER_1_293
*681 FILLER_1_3
*682 FILLER_1_44
*683 FILLER_1_57
*684 FILLER_1_80
*685 FILLER_20_103
*686 FILLER_20_113
*687 FILLER_20_125
*688 FILLER_20_136
*689 FILLER_20_141
*690 FILLER_20_153
*691 FILLER_20_165
*692 FILLER_20_177
*693 FILLER_20_189
*694 FILLER_20_195
*695 FILLER_20_197
*696 FILLER_20_209
*697 FILLER_20_21
*698 FILLER_20_221
*699 FILLER_20_233
*700 FILLER_20_245
*701 FILLER_20_251
*702 FILLER_20_253
*703 FILLER_20_265
*704 FILLER_20_27
*705 FILLER_20_277
*706 FILLER_20_289
*707 FILLER_20_29
*708 FILLER_20_297
*709 FILLER_20_3
*710 FILLER_20_36
*711 FILLER_20_46
*712 FILLER_20_52
*713 FILLER_20_62
*714 FILLER_20_70
*715 FILLER_20_82
*716 FILLER_20_85
*717 FILLER_20_9
*718 FILLER_20_95
*719 FILLER_21_104
*720 FILLER_21_11
*721 FILLER_21_113
*722 FILLER_21_121
*723 FILLER_21_127
*724 FILLER_21_135
*725 FILLER_21_143
*726 FILLER_21_152
*727 FILLER_21_164
*728 FILLER_21_169
*729 FILLER_21_181
*730 FILLER_21_193
*731 FILLER_21_205
*732 FILLER_21_217
*733 FILLER_21_22
*734 FILLER_21_223
*735 FILLER_21_225
*736 FILLER_21_237
*737 FILLER_21_249
*738 FILLER_21_261
*739 FILLER_21_273
*740 FILLER_21_279
*741 FILLER_21_281
*742 FILLER_21_293
*743 FILLER_21_3
*744 FILLER_21_31
*745 FILLER_21_39
*746 FILLER_21_44
*747 FILLER_21_53
*748 FILLER_21_57
*749 FILLER_21_68
*750 FILLER_21_78
*751 FILLER_21_87
*752 FILLER_21_93
*753 FILLER_21_97
*754 FILLER_22_101
*755 FILLER_22_105
*756 FILLER_22_114
*757 FILLER_22_123
*758 FILLER_22_131
*759 FILLER_22_138
*760 FILLER_22_141
*761 FILLER_22_150
*762 FILLER_22_162
*763 FILLER_22_174
*764 FILLER_22_186
*765 FILLER_22_194
*766 FILLER_22_197
*767 FILLER_22_209
*768 FILLER_22_21
*769 FILLER_22_221
*770 FILLER_22_233
*771 FILLER_22_245
*772 FILLER_22_251
*773 FILLER_22_253
*774 FILLER_22_265
*775 FILLER_22_27
*776 FILLER_22_277
*777 FILLER_22_289
*778 FILLER_22_29
*779 FILLER_22_297
*780 FILLER_22_3
*781 FILLER_22_34
*782 FILLER_22_44
*783 FILLER_22_51
*784 FILLER_22_59
*785 FILLER_22_66
*786 FILLER_22_78
*787 FILLER_22_85
*788 FILLER_22_9
*789 FILLER_22_94
*790 FILLER_23_111
*791 FILLER_23_113
*792 FILLER_23_119
*793 FILLER_23_129
*794 FILLER_23_135
*795 FILLER_23_142
*796 FILLER_23_15
*797 FILLER_23_154
*798 FILLER_23_166
*799 FILLER_23_169
*800 FILLER_23_181
*801 FILLER_23_193
*802 FILLER_23_205
*803 FILLER_23_217
*804 FILLER_23_223
*805 FILLER_23_225
*806 FILLER_23_237
*807 FILLER_23_249
*808 FILLER_23_261
*809 FILLER_23_27
*810 FILLER_23_273
*811 FILLER_23_279
*812 FILLER_23_281
*813 FILLER_23_293
*814 FILLER_23_3
*815 FILLER_23_33
*816 FILLER_23_40
*817 FILLER_23_48
*818 FILLER_23_57
*819 FILLER_23_65
*820 FILLER_23_73
*821 FILLER_23_81
*822 FILLER_23_93
*823 FILLER_23_99
*824 FILLER_24_106
*825 FILLER_24_114
*826 FILLER_24_122
*827 FILLER_24_130
*828 FILLER_24_135
*829 FILLER_24_139
*830 FILLER_24_141
*831 FILLER_24_148
*832 FILLER_24_152
*833 FILLER_24_156
*834 FILLER_24_168
*835 FILLER_24_18
*836 FILLER_24_180
*837 FILLER_24_192
*838 FILLER_24_197
*839 FILLER_24_209
*840 FILLER_24_221
*841 FILLER_24_233
*842 FILLER_24_245
*843 FILLER_24_251
*844 FILLER_24_253
*845 FILLER_24_26
*846 FILLER_24_265
*847 FILLER_24_277
*848 FILLER_24_289
*849 FILLER_24_29
*850 FILLER_24_297
*851 FILLER_24_3
*852 FILLER_24_36
*853 FILLER_24_54
*854 FILLER_24_65
*855 FILLER_24_73
*856 FILLER_24_82
*857 FILLER_24_85
*858 FILLER_24_93
*859 FILLER_24_97
*860 FILLER_25_104
*861 FILLER_25_110
*862 FILLER_25_113
*863 FILLER_25_125
*864 FILLER_25_132
*865 FILLER_25_144
*866 FILLER_25_15
*867 FILLER_25_157
*868 FILLER_25_164
*869 FILLER_25_169
*870 FILLER_25_177
*871 FILLER_25_189
*872 FILLER_25_201
*873 FILLER_25_213
*874 FILLER_25_221
*875 FILLER_25_225
*876 FILLER_25_237
*877 FILLER_25_249
*878 FILLER_25_261
*879 FILLER_25_27
*880 FILLER_25_273
*881 FILLER_25_279
*882 FILLER_25_281
*883 FILLER_25_293
*884 FILLER_25_3
*885 FILLER_25_35
*886 FILLER_25_44
*887 FILLER_25_51
*888 FILLER_25_55
*889 FILLER_25_57
*890 FILLER_25_63
*891 FILLER_25_70
*892 FILLER_25_82
*893 FILLER_25_96
*894 FILLER_26_101
*895 FILLER_26_113
*896 FILLER_26_119
*897 FILLER_26_127
*898 FILLER_26_139
*899 FILLER_26_141
*900 FILLER_26_15
*901 FILLER_26_153
*902 FILLER_26_165
*903 FILLER_26_177
*904 FILLER_26_189
*905 FILLER_26_19
*906 FILLER_26_195
*907 FILLER_26_197
*908 FILLER_26_209
*909 FILLER_26_221
*910 FILLER_26_233
*911 FILLER_26_24
*912 FILLER_26_245
*913 FILLER_26_251
*914 FILLER_26_253
*915 FILLER_26_265
*916 FILLER_26_277
*917 FILLER_26_289
*918 FILLER_26_29
*919 FILLER_26_297
*920 FILLER_26_3
*921 FILLER_26_35
*922 FILLER_26_41
*923 FILLER_26_45
*924 FILLER_26_52
*925 FILLER_26_62
*926 FILLER_26_69
*927 FILLER_26_79
*928 FILLER_26_83
*929 FILLER_26_85
*930 FILLER_27_105
*931 FILLER_27_111
*932 FILLER_27_113
*933 FILLER_27_121
*934 FILLER_27_130
*935 FILLER_27_142
*936 FILLER_27_15
*937 FILLER_27_154
*938 FILLER_27_161
*939 FILLER_27_167
*940 FILLER_27_169
*941 FILLER_27_181
*942 FILLER_27_193
*943 FILLER_27_205
*944 FILLER_27_217
*945 FILLER_27_223
*946 FILLER_27_225
*947 FILLER_27_237
*948 FILLER_27_249
*949 FILLER_27_261
*950 FILLER_27_273
*951 FILLER_27_279
*952 FILLER_27_281
*953 FILLER_27_293
*954 FILLER_27_3
*955 FILLER_27_30
*956 FILLER_27_42
*957 FILLER_27_50
*958 FILLER_27_57
*959 FILLER_27_68
*960 FILLER_27_72
*961 FILLER_27_77
*962 FILLER_27_87
*963 FILLER_27_98
*964 FILLER_28_107
*965 FILLER_28_111
*966 FILLER_28_117
*967 FILLER_28_125
*968 FILLER_28_132
*969 FILLER_28_141
*970 FILLER_28_15
*971 FILLER_28_153
*972 FILLER_28_165
*973 FILLER_28_177
*974 FILLER_28_189
*975 FILLER_28_195
*976 FILLER_28_197
*977 FILLER_28_209
*978 FILLER_28_221
*979 FILLER_28_233
*980 FILLER_28_24
*981 FILLER_28_245
*982 FILLER_28_251
*983 FILLER_28_253
*984 FILLER_28_265
*985 FILLER_28_277
*986 FILLER_28_289
*987 FILLER_28_29
*988 FILLER_28_297
*989 FILLER_28_3
*990 FILLER_28_42
*991 FILLER_28_52
*992 FILLER_28_60
*993 FILLER_28_68
*994 FILLER_28_82
*995 FILLER_28_85
*996 FILLER_28_95
*997 FILLER_29_106
*998 FILLER_29_11
*999 FILLER_29_113
*1000 FILLER_29_125
*1001 FILLER_29_133
*1002 FILLER_29_141
*1003 FILLER_29_15
*1004 FILLER_29_153
*1005 FILLER_29_165
*1006 FILLER_29_169
*1007 FILLER_29_177
*1008 FILLER_29_189
*1009 FILLER_29_201
*1010 FILLER_29_213
*1011 FILLER_29_221
*1012 FILLER_29_225
*1013 FILLER_29_237
*1014 FILLER_29_249
*1015 FILLER_29_261
*1016 FILLER_29_27
*1017 FILLER_29_273
*1018 FILLER_29_279
*1019 FILLER_29_281
*1020 FILLER_29_293
*1021 FILLER_29_3
*1022 FILLER_29_37
*1023 FILLER_29_45
*1024 FILLER_29_54
*1025 FILLER_29_57
*1026 FILLER_29_61
*1027 FILLER_29_68
*1028 FILLER_29_80
*1029 FILLER_29_84
*1030 FILLER_29_94
*1031 FILLER_2_103
*1032 FILLER_2_123
*1033 FILLER_2_135
*1034 FILLER_2_139
*1035 FILLER_2_141
*1036 FILLER_2_153
*1037 FILLER_2_165
*1038 FILLER_2_177
*1039 FILLER_2_189
*1040 FILLER_2_195
*1041 FILLER_2_197
*1042 FILLER_2_209
*1043 FILLER_2_22
*1044 FILLER_2_221
*1045 FILLER_2_233
*1046 FILLER_2_245
*1047 FILLER_2_251
*1048 FILLER_2_253
*1049 FILLER_2_265
*1050 FILLER_2_277
*1051 FILLER_2_289
*1052 FILLER_2_29
*1053 FILLER_2_297
*1054 FILLER_2_3
*1055 FILLER_2_41
*1056 FILLER_2_65
*1057 FILLER_2_77
*1058 FILLER_2_83
*1059 FILLER_2_85
*1060 FILLER_30_107
*1061 FILLER_30_119
*1062 FILLER_30_131
*1063 FILLER_30_139
*1064 FILLER_30_141
*1065 FILLER_30_15
*1066 FILLER_30_153
*1067 FILLER_30_165
*1068 FILLER_30_177
*1069 FILLER_30_189
*1070 FILLER_30_195
*1071 FILLER_30_197
*1072 FILLER_30_209
*1073 FILLER_30_22
*1074 FILLER_30_221
*1075 FILLER_30_233
*1076 FILLER_30_245
*1077 FILLER_30_251
*1078 FILLER_30_253
*1079 FILLER_30_265
*1080 FILLER_30_277
*1081 FILLER_30_289
*1082 FILLER_30_29
*1083 FILLER_30_297
*1084 FILLER_30_3
*1085 FILLER_30_36
*1086 FILLER_30_53
*1087 FILLER_30_60
*1088 FILLER_30_64
*1089 FILLER_30_73
*1090 FILLER_30_81
*1091 FILLER_30_85
*1092 FILLER_30_95
*1093 FILLER_31_111
*1094 FILLER_31_113
*1095 FILLER_31_118
*1096 FILLER_31_130
*1097 FILLER_31_142
*1098 FILLER_31_15
*1099 FILLER_31_154
*1100 FILLER_31_166
*1101 FILLER_31_169
*1102 FILLER_31_181
*1103 FILLER_31_193
*1104 FILLER_31_205
*1105 FILLER_31_217
*1106 FILLER_31_223
*1107 FILLER_31_225
*1108 FILLER_31_23
*1109 FILLER_31_237
*1110 FILLER_31_249
*1111 FILLER_31_261
*1112 FILLER_31_273
*1113 FILLER_31_279
*1114 FILLER_31_281
*1115 FILLER_31_293
*1116 FILLER_31_3
*1117 FILLER_31_30
*1118 FILLER_31_42
*1119 FILLER_31_53
*1120 FILLER_31_57
*1121 FILLER_31_61
*1122 FILLER_31_66
*1123 FILLER_31_78
*1124 FILLER_31_87
*1125 FILLER_31_99
*1126 FILLER_32_102
*1127 FILLER_32_114
*1128 FILLER_32_126
*1129 FILLER_32_138
*1130 FILLER_32_141
*1131 FILLER_32_146
*1132 FILLER_32_15
*1133 FILLER_32_158
*1134 FILLER_32_170
*1135 FILLER_32_182
*1136 FILLER_32_194
*1137 FILLER_32_197
*1138 FILLER_32_209
*1139 FILLER_32_221
*1140 FILLER_32_233
*1141 FILLER_32_245
*1142 FILLER_32_251
*1143 FILLER_32_253
*1144 FILLER_32_265
*1145 FILLER_32_27
*1146 FILLER_32_277
*1147 FILLER_32_289
*1148 FILLER_32_29
*1149 FILLER_32_297
*1150 FILLER_32_3
*1151 FILLER_32_41
*1152 FILLER_32_47
*1153 FILLER_32_54
*1154 FILLER_32_62
*1155 FILLER_32_69
*1156 FILLER_32_76
*1157 FILLER_32_85
*1158 FILLER_32_90
*1159 FILLER_33_107
*1160 FILLER_33_111
*1161 FILLER_33_113
*1162 FILLER_33_121
*1163 FILLER_33_133
*1164 FILLER_33_139
*1165 FILLER_33_144
*1166 FILLER_33_15
*1167 FILLER_33_156
*1168 FILLER_33_169
*1169 FILLER_33_181
*1170 FILLER_33_193
*1171 FILLER_33_205
*1172 FILLER_33_217
*1173 FILLER_33_223
*1174 FILLER_33_225
*1175 FILLER_33_237
*1176 FILLER_33_249
*1177 FILLER_33_261
*1178 FILLER_33_27
*1179 FILLER_33_273
*1180 FILLER_33_279
*1181 FILLER_33_281
*1182 FILLER_33_293
*1183 FILLER_33_3
*1184 FILLER_33_39
*1185 FILLER_33_51
*1186 FILLER_33_55
*1187 FILLER_33_57
*1188 FILLER_33_70
*1189 FILLER_33_78
*1190 FILLER_33_85
*1191 FILLER_33_95
*1192 FILLER_34_110
*1193 FILLER_34_122
*1194 FILLER_34_134
*1195 FILLER_34_141
*1196 FILLER_34_15
*1197 FILLER_34_153
*1198 FILLER_34_159
*1199 FILLER_34_166
*1200 FILLER_34_178
*1201 FILLER_34_190
*1202 FILLER_34_197
*1203 FILLER_34_209
*1204 FILLER_34_221
*1205 FILLER_34_233
*1206 FILLER_34_245
*1207 FILLER_34_251
*1208 FILLER_34_253
*1209 FILLER_34_265
*1210 FILLER_34_27
*1211 FILLER_34_277
*1212 FILLER_34_289
*1213 FILLER_34_29
*1214 FILLER_34_297
*1215 FILLER_34_3
*1216 FILLER_34_34
*1217 FILLER_34_46
*1218 FILLER_34_54
*1219 FILLER_34_63
*1220 FILLER_34_75
*1221 FILLER_34_82
*1222 FILLER_34_85
*1223 FILLER_34_98
*1224 FILLER_35_102
*1225 FILLER_35_110
*1226 FILLER_35_113
*1227 FILLER_35_125
*1228 FILLER_35_137
*1229 FILLER_35_149
*1230 FILLER_35_15
*1231 FILLER_35_161
*1232 FILLER_35_167
*1233 FILLER_35_169
*1234 FILLER_35_181
*1235 FILLER_35_193
*1236 FILLER_35_205
*1237 FILLER_35_215
*1238 FILLER_35_223
*1239 FILLER_35_225
*1240 FILLER_35_237
*1241 FILLER_35_24
*1242 FILLER_35_249
*1243 FILLER_35_261
*1244 FILLER_35_273
*1245 FILLER_35_279
*1246 FILLER_35_281
*1247 FILLER_35_293
*1248 FILLER_35_3
*1249 FILLER_35_32
*1250 FILLER_35_36
*1251 FILLER_35_49
*1252 FILLER_35_55
*1253 FILLER_35_57
*1254 FILLER_35_69
*1255 FILLER_35_80
*1256 FILLER_35_84
*1257 FILLER_36_105
*1258 FILLER_36_117
*1259 FILLER_36_129
*1260 FILLER_36_137
*1261 FILLER_36_141
*1262 FILLER_36_15
*1263 FILLER_36_153
*1264 FILLER_36_165
*1265 FILLER_36_177
*1266 FILLER_36_189
*1267 FILLER_36_195
*1268 FILLER_36_197
*1269 FILLER_36_209
*1270 FILLER_36_221
*1271 FILLER_36_233
*1272 FILLER_36_245
*1273 FILLER_36_251
*1274 FILLER_36_253
*1275 FILLER_36_265
*1276 FILLER_36_27
*1277 FILLER_36_277
*1278 FILLER_36_289
*1279 FILLER_36_29
*1280 FILLER_36_297
*1281 FILLER_36_3
*1282 FILLER_36_39
*1283 FILLER_36_51
*1284 FILLER_36_63
*1285 FILLER_36_75
*1286 FILLER_36_83
*1287 FILLER_36_85
*1288 FILLER_36_89
*1289 FILLER_36_93
*1290 FILLER_37_109
*1291 FILLER_37_11
*1292 FILLER_37_113
*1293 FILLER_37_125
*1294 FILLER_37_137
*1295 FILLER_37_149
*1296 FILLER_37_161
*1297 FILLER_37_167
*1298 FILLER_37_169
*1299 FILLER_37_18
*1300 FILLER_37_181
*1301 FILLER_37_193
*1302 FILLER_37_205
*1303 FILLER_37_217
*1304 FILLER_37_223
*1305 FILLER_37_225
*1306 FILLER_37_237
*1307 FILLER_37_249
*1308 FILLER_37_261
*1309 FILLER_37_273
*1310 FILLER_37_279
*1311 FILLER_37_281
*1312 FILLER_37_293
*1313 FILLER_37_3
*1314 FILLER_37_30
*1315 FILLER_37_42
*1316 FILLER_37_54
*1317 FILLER_37_57
*1318 FILLER_37_69
*1319 FILLER_37_81
*1320 FILLER_37_97
*1321 FILLER_38_101
*1322 FILLER_38_107
*1323 FILLER_38_114
*1324 FILLER_38_126
*1325 FILLER_38_138
*1326 FILLER_38_141
*1327 FILLER_38_148
*1328 FILLER_38_15
*1329 FILLER_38_160
*1330 FILLER_38_172
*1331 FILLER_38_184
*1332 FILLER_38_197
*1333 FILLER_38_209
*1334 FILLER_38_221
*1335 FILLER_38_233
*1336 FILLER_38_245
*1337 FILLER_38_251
*1338 FILLER_38_253
*1339 FILLER_38_265
*1340 FILLER_38_27
*1341 FILLER_38_277
*1342 FILLER_38_289
*1343 FILLER_38_29
*1344 FILLER_38_297
*1345 FILLER_38_3
*1346 FILLER_38_41
*1347 FILLER_38_58
*1348 FILLER_38_70
*1349 FILLER_38_82
*1350 FILLER_38_85
*1351 FILLER_38_95
*1352 FILLER_39_100
*1353 FILLER_39_107
*1354 FILLER_39_111
*1355 FILLER_39_113
*1356 FILLER_39_125
*1357 FILLER_39_137
*1358 FILLER_39_149
*1359 FILLER_39_15
*1360 FILLER_39_161
*1361 FILLER_39_167
*1362 FILLER_39_169
*1363 FILLER_39_181
*1364 FILLER_39_193
*1365 FILLER_39_205
*1366 FILLER_39_217
*1367 FILLER_39_223
*1368 FILLER_39_225
*1369 FILLER_39_237
*1370 FILLER_39_249
*1371 FILLER_39_261
*1372 FILLER_39_27
*1373 FILLER_39_273
*1374 FILLER_39_279
*1375 FILLER_39_281
*1376 FILLER_39_293
*1377 FILLER_39_3
*1378 FILLER_39_39
*1379 FILLER_39_51
*1380 FILLER_39_55
*1381 FILLER_39_57
*1382 FILLER_39_64
*1383 FILLER_39_72
*1384 FILLER_39_80
*1385 FILLER_39_92
*1386 FILLER_3_104
*1387 FILLER_3_113
*1388 FILLER_3_121
*1389 FILLER_3_126
*1390 FILLER_3_138
*1391 FILLER_3_148
*1392 FILLER_3_15
*1393 FILLER_3_160
*1394 FILLER_3_169
*1395 FILLER_3_181
*1396 FILLER_3_193
*1397 FILLER_3_205
*1398 FILLER_3_217
*1399 FILLER_3_223
*1400 FILLER_3_225
*1401 FILLER_3_237
*1402 FILLER_3_249
*1403 FILLER_3_261
*1404 FILLER_3_273
*1405 FILLER_3_279
*1406 FILLER_3_281
*1407 FILLER_3_293
*1408 FILLER_3_3
*1409 FILLER_3_36
*1410 FILLER_3_48
*1411 FILLER_3_57
*1412 FILLER_3_77
*1413 FILLER_3_97
*1414 FILLER_40_109
*1415 FILLER_40_121
*1416 FILLER_40_133
*1417 FILLER_40_139
*1418 FILLER_40_141
*1419 FILLER_40_15
*1420 FILLER_40_153
*1421 FILLER_40_165
*1422 FILLER_40_177
*1423 FILLER_40_189
*1424 FILLER_40_195
*1425 FILLER_40_197
*1426 FILLER_40_209
*1427 FILLER_40_221
*1428 FILLER_40_233
*1429 FILLER_40_245
*1430 FILLER_40_251
*1431 FILLER_40_253
*1432 FILLER_40_265
*1433 FILLER_40_27
*1434 FILLER_40_277
*1435 FILLER_40_289
*1436 FILLER_40_29
*1437 FILLER_40_297
*1438 FILLER_40_3
*1439 FILLER_40_40
*1440 FILLER_40_52
*1441 FILLER_40_64
*1442 FILLER_40_76
*1443 FILLER_40_85
*1444 FILLER_40_97
*1445 FILLER_41_105
*1446 FILLER_41_111
*1447 FILLER_41_113
*1448 FILLER_41_125
*1449 FILLER_41_137
*1450 FILLER_41_149
*1451 FILLER_41_15
*1452 FILLER_41_161
*1453 FILLER_41_167
*1454 FILLER_41_169
*1455 FILLER_41_181
*1456 FILLER_41_193
*1457 FILLER_41_205
*1458 FILLER_41_217
*1459 FILLER_41_223
*1460 FILLER_41_225
*1461 FILLER_41_237
*1462 FILLER_41_249
*1463 FILLER_41_261
*1464 FILLER_41_27
*1465 FILLER_41_273
*1466 FILLER_41_279
*1467 FILLER_41_281
*1468 FILLER_41_293
*1469 FILLER_41_3
*1470 FILLER_41_39
*1471 FILLER_41_51
*1472 FILLER_41_55
*1473 FILLER_41_57
*1474 FILLER_41_69
*1475 FILLER_41_81
*1476 FILLER_41_93
*1477 FILLER_42_109
*1478 FILLER_42_121
*1479 FILLER_42_133
*1480 FILLER_42_139
*1481 FILLER_42_141
*1482 FILLER_42_153
*1483 FILLER_42_165
*1484 FILLER_42_177
*1485 FILLER_42_189
*1486 FILLER_42_195
*1487 FILLER_42_197
*1488 FILLER_42_20
*1489 FILLER_42_209
*1490 FILLER_42_221
*1491 FILLER_42_233
*1492 FILLER_42_245
*1493 FILLER_42_251
*1494 FILLER_42_253
*1495 FILLER_42_265
*1496 FILLER_42_277
*1497 FILLER_42_289
*1498 FILLER_42_29
*1499 FILLER_42_297
*1500 FILLER_42_3
*1501 FILLER_42_41
*1502 FILLER_42_53
*1503 FILLER_42_59
*1504 FILLER_42_63
*1505 FILLER_42_75
*1506 FILLER_42_8
*1507 FILLER_42_83
*1508 FILLER_42_85
*1509 FILLER_42_97
*1510 FILLER_43_105
*1511 FILLER_43_111
*1512 FILLER_43_113
*1513 FILLER_43_125
*1514 FILLER_43_137
*1515 FILLER_43_149
*1516 FILLER_43_15
*1517 FILLER_43_161
*1518 FILLER_43_167
*1519 FILLER_43_169
*1520 FILLER_43_181
*1521 FILLER_43_193
*1522 FILLER_43_205
*1523 FILLER_43_217
*1524 FILLER_43_223
*1525 FILLER_43_225
*1526 FILLER_43_237
*1527 FILLER_43_249
*1528 FILLER_43_261
*1529 FILLER_43_27
*1530 FILLER_43_273
*1531 FILLER_43_279
*1532 FILLER_43_281
*1533 FILLER_43_293
*1534 FILLER_43_3
*1535 FILLER_43_39
*1536 FILLER_43_51
*1537 FILLER_43_55
*1538 FILLER_43_57
*1539 FILLER_43_69
*1540 FILLER_43_81
*1541 FILLER_43_93
*1542 FILLER_44_109
*1543 FILLER_44_121
*1544 FILLER_44_133
*1545 FILLER_44_139
*1546 FILLER_44_141
*1547 FILLER_44_15
*1548 FILLER_44_153
*1549 FILLER_44_165
*1550 FILLER_44_177
*1551 FILLER_44_189
*1552 FILLER_44_195
*1553 FILLER_44_197
*1554 FILLER_44_209
*1555 FILLER_44_221
*1556 FILLER_44_233
*1557 FILLER_44_245
*1558 FILLER_44_251
*1559 FILLER_44_253
*1560 FILLER_44_265
*1561 FILLER_44_27
*1562 FILLER_44_277
*1563 FILLER_44_289
*1564 FILLER_44_29
*1565 FILLER_44_297
*1566 FILLER_44_3
*1567 FILLER_44_41
*1568 FILLER_44_53
*1569 FILLER_44_65
*1570 FILLER_44_77
*1571 FILLER_44_83
*1572 FILLER_44_85
*1573 FILLER_44_97
*1574 FILLER_45_105
*1575 FILLER_45_111
*1576 FILLER_45_113
*1577 FILLER_45_125
*1578 FILLER_45_137
*1579 FILLER_45_149
*1580 FILLER_45_15
*1581 FILLER_45_161
*1582 FILLER_45_167
*1583 FILLER_45_169
*1584 FILLER_45_181
*1585 FILLER_45_193
*1586 FILLER_45_205
*1587 FILLER_45_217
*1588 FILLER_45_223
*1589 FILLER_45_225
*1590 FILLER_45_237
*1591 FILLER_45_249
*1592 FILLER_45_261
*1593 FILLER_45_27
*1594 FILLER_45_273
*1595 FILLER_45_279
*1596 FILLER_45_281
*1597 FILLER_45_293
*1598 FILLER_45_3
*1599 FILLER_45_39
*1600 FILLER_45_51
*1601 FILLER_45_55
*1602 FILLER_45_57
*1603 FILLER_45_69
*1604 FILLER_45_81
*1605 FILLER_45_93
*1606 FILLER_46_109
*1607 FILLER_46_121
*1608 FILLER_46_133