*SPEF "ieee 1481-1999"
*DESIGN "gregdavill_serv_top"
*DATE "11:11:11 Fri 11 11, 1111"
*VENDOR "OpenRCX"
*PROGRAM "Parallel Extraction"
*VERSION "1.0"
*DESIGN_FLOW "NAME_SCOPE LOCAL" "PIN_CAP NONE"
*DIVIDER /
*DELIMITER :
*BUS_DELIMITER []
*T_UNIT 1 NS
*C_UNIT 1 PF
*R_UNIT 1 OHM
*L_UNIT 1 HENRY

*NAME_MAP
*1 io_in[0]
*2 io_in[1]
*3 io_in[2]
*4 io_in[3]
*5 io_in[4]
*6 io_in[5]
*7 io_in[6]
*8 io_in[7]
*9 io_out[0]
*10 io_out[1]
*11 io_out[2]
*12 net45
*13 net46
*14 net47
*15 net48
*16 net49
*19 _0000_
*20 _0001_
*21 _0002_
*22 _0003_
*23 _0004_
*24 _0005_
*25 _0006_
*26 _0007_
*27 _0008_
*28 _0009_
*29 _0010_
*30 _0011_
*31 _0012_
*32 _0013_
*33 _0014_
*34 _0015_
*35 _0016_
*36 _0017_
*37 _0018_
*38 _0019_
*39 _0020_
*40 _0021_
*41 _0022_
*42 _0023_
*43 _0024_
*44 _0025_
*45 _0026_
*46 _0027_
*47 _0028_
*48 _0029_
*49 _0030_
*50 _0031_
*51 _0032_
*52 _0033_
*53 _0034_
*54 _0035_
*55 _0036_
*56 _0037_
*57 _0038_
*58 _0039_
*59 _0040_
*60 _0041_
*61 _0042_
*62 _0043_
*63 _0044_
*64 _0045_
*65 _0046_
*66 _0047_
*67 _0048_
*68 _0049_
*69 _0050_
*70 _0051_
*71 _0052_
*72 _0053_
*73 _0054_
*74 _0055_
*75 _0056_
*76 _0057_
*77 _0058_
*78 _0059_
*79 _0060_
*80 _0061_
*81 _0062_
*82 _0063_
*83 _0064_
*84 _0065_
*85 _0066_
*86 _0067_
*87 _0068_
*88 _0069_
*89 _0070_
*90 _0071_
*91 _0072_
*92 _0073_
*93 _0074_
*94 _0075_
*95 _0076_
*96 _0077_
*97 _0078_
*98 _0079_
*99 _0080_
*100 _0081_
*101 _0082_
*102 _0083_
*103 _0084_
*104 _0085_
*105 _0086_
*106 _0087_
*107 _0088_
*108 _0089_
*109 _0090_
*110 _0091_
*111 _0092_
*112 _0093_
*113 _0094_
*114 _0095_
*115 _0096_
*116 _0097_
*117 _0098_
*118 _0099_
*119 _0100_
*120 _0101_
*121 _0102_
*122 _0103_
*123 _0104_
*124 _0105_
*125 _0106_
*126 _0107_
*127 _0108_
*128 _0109_
*129 _0110_
*130 _0111_
*131 _0112_
*132 _0113_
*133 _0114_
*134 _0115_
*135 _0116_
*136 _0117_
*137 _0118_
*138 _0119_
*139 _0120_
*140 _0121_
*141 _0122_
*142 _0123_
*143 _0124_
*144 _0125_
*145 _0126_
*146 _0127_
*147 _0128_
*148 _0129_
*149 _0130_
*150 _0131_
*151 _0132_
*152 _0133_
*153 _0134_
*154 _0135_
*155 _0136_
*156 _0137_
*157 _0138_
*158 _0139_
*159 _0140_
*160 _0141_
*161 _0142_
*162 _0143_
*163 _0144_
*164 _0145_
*165 _0146_
*166 _0147_
*167 _0148_
*168 _0149_
*169 _0150_
*170 _0151_
*171 _0152_
*172 _0153_
*173 _0154_
*174 _0155_
*175 _0156_
*176 _0157_
*177 _0158_
*178 _0159_
*179 _0160_
*180 _0161_
*181 _0162_
*182 _0163_
*183 _0164_
*184 _0165_
*185 _0166_
*186 _0167_
*187 _0168_
*188 _0169_
*189 _0170_
*190 _0171_
*191 _0172_
*192 _0173_
*193 _0174_
*194 _0175_
*195 _0176_
*196 _0177_
*197 _0178_
*198 _0179_
*199 _0180_
*200 _0181_
*201 _0182_
*202 _0183_
*203 _0184_
*204 _0185_
*205 _0186_
*206 _0187_
*207 _0188_
*208 _0189_
*209 _0190_
*210 _0191_
*211 _0192_
*212 _0193_
*213 _0194_
*214 _0195_
*215 _0196_
*216 _0197_
*217 _0198_
*218 _0199_
*219 _0200_
*220 _0201_
*221 _0202_
*222 _0203_
*223 _0204_
*224 _0205_
*225 _0206_
*226 _0207_
*227 _0208_
*228 _0209_
*229 _0210_
*230 _0211_
*231 _0212_
*232 _0213_
*233 _0214_
*234 _0215_
*235 _0216_
*236 _0217_
*237 _0218_
*238 _0219_
*239 _0220_
*240 _0221_
*241 _0222_
*242 _0223_
*243 _0224_
*244 _0225_
*245 _0226_
*246 _0227_
*247 _0228_
*248 _0229_
*249 _0230_
*250 _0231_
*251 _0232_
*252 _0233_
*253 _0234_
*254 _0235_
*255 _0236_
*256 _0237_
*257 _0238_
*258 _0239_
*259 _0240_
*260 _0241_
*261 _0242_
*262 _0243_
*263 _0244_
*264 _0245_
*265 _0246_
*266 _0247_
*267 _0248_
*268 _0249_
*269 _0250_
*270 _0251_
*271 _0252_
*272 _0253_
*273 _0254_
*274 _0255_
*275 _0256_
*276 _0257_
*277 _0258_
*278 _0259_
*279 _0260_
*280 _0261_
*281 _0262_
*282 _0263_
*283 _0264_
*284 _0265_
*285 _0266_
*286 _0267_
*287 _0268_
*288 _0269_
*289 _0270_
*290 _0271_
*291 _0272_
*292 _0273_
*293 _0274_
*294 _0275_
*295 _0276_
*296 _0277_
*297 _0278_
*298 _0279_
*299 _0280_
*300 _0281_
*301 _0282_
*302 _0283_
*303 _0284_
*304 _0285_
*305 _0286_
*306 _0287_
*307 _0288_
*308 _0289_
*309 _0290_
*310 _0291_
*311 _0292_
*312 _0293_
*313 _0294_
*314 _0295_
*315 _0296_
*316 _0297_
*317 _0298_
*318 _0299_
*319 _0300_
*320 _0301_
*321 _0302_
*322 _0303_
*323 _0304_
*324 _0305_
*325 _0306_
*326 _0307_
*327 _0308_
*328 _0309_
*329 _0310_
*330 _0311_
*331 _0312_
*332 _0313_
*333 _0314_
*334 _0315_
*335 _0316_
*336 _0317_
*337 _0318_
*338 _0319_
*339 _0320_
*340 _0321_
*341 _0322_
*342 _0323_
*343 _0324_
*344 _0325_
*345 _0326_
*346 _0327_
*347 _0328_
*348 _0329_
*349 _0330_
*350 _0331_
*351 _0332_
*352 _0333_
*353 _0334_
*354 _0335_
*355 _0336_
*356 _0337_
*357 _0338_
*358 _0339_
*359 _0340_
*360 _0341_
*361 _0342_
*362 _0343_
*363 _0344_
*364 _0345_
*365 _0346_
*366 _0347_
*367 _0348_
*368 _0349_
*369 _0350_
*370 _0351_
*371 _0352_
*372 _0353_
*373 _0354_
*374 _0355_
*375 _0356_
*376 _0357_
*377 _0358_
*378 _0359_
*379 _0360_
*380 _0361_
*381 _0362_
*382 _0363_
*383 _0364_
*384 _0365_
*385 _0366_
*386 _0367_
*387 _0368_
*388 _0369_
*389 _0370_
*390 _0371_
*391 _0372_
*392 _0373_
*393 _0374_
*394 _0375_
*395 _0376_
*396 _0377_
*397 _0378_
*398 _0379_
*399 _0380_
*400 _0381_
*401 _0382_
*402 _0383_
*403 _0384_
*404 _0385_
*405 _0386_
*406 _0387_
*407 _0388_
*408 _0389_
*409 _0390_
*410 _0391_
*411 _0392_
*412 _0393_
*413 _0394_
*414 _0395_
*415 _0396_
*416 _0397_
*417 _0398_
*418 _0399_
*419 _0400_
*420 _0401_
*421 _0402_
*422 _0403_
*423 _0404_
*424 _0405_
*425 _0406_
*426 _0407_
*427 _0408_
*428 _0409_
*429 _0410_
*430 _0411_
*431 _0412_
*432 _0413_
*433 _0414_
*434 _0415_
*435 _0416_
*436 _0417_
*437 _0418_
*438 _0419_
*439 _0420_
*440 _0421_
*441 _0422_
*442 _0423_
*443 _0424_
*444 _0425_
*445 _0426_
*446 _0427_
*447 _0428_
*448 _0429_
*449 _0430_
*450 _0431_
*451 _0432_
*452 _0433_
*453 _0434_
*454 _0435_
*455 _0436_
*456 _0437_
*457 _0438_
*458 _0439_
*459 _0440_
*460 _0441_
*461 _0442_
*462 _0443_
*463 _0444_
*464 _0445_
*465 _0446_
*466 _0447_
*467 _0448_
*468 _0449_
*469 _0450_
*470 _0451_
*471 _0452_
*472 _0453_
*473 _0454_
*474 _0455_
*475 _0456_
*476 _0457_
*477 _0458_
*478 _0459_
*479 _0460_
*480 _0461_
*481 _0462_
*482 _0463_
*483 _0464_
*484 _0465_
*485 _0466_
*486 _0467_
*487 _0468_
*488 _0469_
*489 _0470_
*490 _0471_
*491 _0472_
*492 _0473_
*493 _0474_
*494 _0475_
*495 _0476_
*496 _0477_
*497 _0478_
*498 _0479_
*499 _0480_
*500 _0481_
*501 _0482_
*502 _0483_
*503 _0484_
*504 _0485_
*505 _0486_
*506 _0487_
*507 _0488_
*508 _0489_
*509 _0490_
*510 _0491_
*511 _0492_
*512 _0493_
*513 _0494_
*514 _0495_
*515 _0496_
*516 _0497_
*517 _0498_
*518 _0499_
*519 _0500_
*520 _0501_
*521 _0502_
*522 _0503_
*523 _0504_
*524 _0505_
*525 _0506_
*526 _0507_
*527 _0508_
*528 _0509_
*529 _0510_
*530 _0511_
*531 _0512_
*532 cpu\.alu\.add_cy_r
*533 cpu\.alu\.cmp_r
*534 cpu\.alu\.i_rs1
*535 cpu\.bne_or_bge
*536 cpu\.branch_op
*537 cpu\.bufreg\.c_r
*538 cpu\.bufreg\.data\[10\]
*539 cpu\.bufreg\.data\[11\]
*540 cpu\.bufreg\.data\[12\]
*541 cpu\.bufreg\.data\[13\]
*542 cpu\.bufreg\.data\[14\]
*543 cpu\.bufreg\.data\[15\]
*544 cpu\.bufreg\.data\[16\]
*545 cpu\.bufreg\.data\[17\]
*546 cpu\.bufreg\.data\[18\]
*547 cpu\.bufreg\.data\[19\]
*548 cpu\.bufreg\.data\[20\]
*549 cpu\.bufreg\.data\[21\]
*550 cpu\.bufreg\.data\[22\]
*551 cpu\.bufreg\.data\[23\]
*552 cpu\.bufreg\.data\[24\]
*553 cpu\.bufreg\.data\[25\]
*554 cpu\.bufreg\.data\[26\]
*555 cpu\.bufreg\.data\[27\]
*556 cpu\.bufreg\.data\[28\]
*557 cpu\.bufreg\.data\[29\]
*558 cpu\.bufreg\.data\[2\]
*559 cpu\.bufreg\.data\[30\]
*560 cpu\.bufreg\.data\[31\]
*561 cpu\.bufreg\.data\[3\]
*562 cpu\.bufreg\.data\[4\]
*563 cpu\.bufreg\.data\[5\]
*564 cpu\.bufreg\.data\[6\]
*565 cpu\.bufreg\.data\[7\]
*566 cpu\.bufreg\.data\[8\]
*567 cpu\.bufreg\.data\[9\]
*568 cpu\.bufreg\.i_sh_signed
*569 cpu\.bufreg\.lsb\[0\]
*570 cpu\.bufreg\.lsb\[1\]
*571 cpu\.bufreg2\.dat\[0\]
*572 cpu\.bufreg2\.dat\[10\]
*573 cpu\.bufreg2\.dat\[11\]
*574 cpu\.bufreg2\.dat\[12\]
*575 cpu\.bufreg2\.dat\[13\]
*576 cpu\.bufreg2\.dat\[14\]
*577 cpu\.bufreg2\.dat\[15\]
*578 cpu\.bufreg2\.dat\[16\]
*579 cpu\.bufreg2\.dat\[17\]
*580 cpu\.bufreg2\.dat\[18\]
*581 cpu\.bufreg2\.dat\[19\]
*582 cpu\.bufreg2\.dat\[1\]
*583 cpu\.bufreg2\.dat\[20\]
*584 cpu\.bufreg2\.dat\[21\]
*585 cpu\.bufreg2\.dat\[22\]
*586 cpu\.bufreg2\.dat\[23\]
*587 cpu\.bufreg2\.dat\[24\]
*588 cpu\.bufreg2\.dat\[25\]
*589 cpu\.bufreg2\.dat\[26\]
*590 cpu\.bufreg2\.dat\[27\]
*591 cpu\.bufreg2\.dat\[28\]
*592 cpu\.bufreg2\.dat\[29\]
*593 cpu\.bufreg2\.dat\[2\]
*594 cpu\.bufreg2\.dat\[30\]
*595 cpu\.bufreg2\.dat\[31\]
*596 cpu\.bufreg2\.dat\[3\]
*597 cpu\.bufreg2\.dat\[4\]
*598 cpu\.bufreg2\.dat\[5\]
*599 cpu\.bufreg2\.dat\[6\]
*600 cpu\.bufreg2\.dat\[7\]
*601 cpu\.bufreg2\.dat\[8\]
*602 cpu\.bufreg2\.dat\[9\]
*603 cpu\.bufreg2\.i_cnt_done
*604 cpu\.bufreg2\.i_dat\[0\]
*605 cpu\.bufreg2\.i_dat\[10\]
*606 cpu\.bufreg2\.i_dat\[11\]
*607 cpu\.bufreg2\.i_dat\[12\]
*608 cpu\.bufreg2\.i_dat\[13\]
*609 cpu\.bufreg2\.i_dat\[14\]
*610 cpu\.bufreg2\.i_dat\[15\]
*611 cpu\.bufreg2\.i_dat\[16\]
*612 cpu\.bufreg2\.i_dat\[17\]
*613 cpu\.bufreg2\.i_dat\[18\]
*614 cpu\.bufreg2\.i_dat\[19\]
*615 cpu\.bufreg2\.i_dat\[1\]
*616 cpu\.bufreg2\.i_dat\[20\]
*617 cpu\.bufreg2\.i_dat\[21\]
*618 cpu\.bufreg2\.i_dat\[22\]
*619 cpu\.bufreg2\.i_dat\[23\]
*620 cpu\.bufreg2\.i_dat\[24\]
*621 cpu\.bufreg2\.i_dat\[25\]
*622 cpu\.bufreg2\.i_dat\[26\]
*623 cpu\.bufreg2\.i_dat\[27\]
*624 cpu\.bufreg2\.i_dat\[28\]
*625 cpu\.bufreg2\.i_dat\[29\]
*626 cpu\.bufreg2\.i_dat\[2\]
*627 cpu\.bufreg2\.i_dat\[30\]
*628 cpu\.bufreg2\.i_dat\[31\]
*629 cpu\.bufreg2\.i_dat\[3\]
*630 cpu\.bufreg2\.i_dat\[4\]
*631 cpu\.bufreg2\.i_dat\[5\]
*632 cpu\.bufreg2\.i_dat\[6\]
*633 cpu\.bufreg2\.i_dat\[7\]
*634 cpu\.bufreg2\.i_dat\[8\]
*635 cpu\.bufreg2\.i_dat\[9\]
*636 cpu\.bufreg2\.i_op_b_sel
*637 cpu\.bufreg2\.i_rs2
*638 cpu\.csr_d_sel
*639 cpu\.csr_imm
*640 cpu\.ctrl\.i_jump
*641 cpu\.ctrl\.o_ibus_adr\[0\]
*642 cpu\.ctrl\.o_ibus_adr\[10\]
*643 cpu\.ctrl\.o_ibus_adr\[11\]
*644 cpu\.ctrl\.o_ibus_adr\[12\]
*645 cpu\.ctrl\.o_ibus_adr\[13\]
*646 cpu\.ctrl\.o_ibus_adr\[14\]
*647 cpu\.ctrl\.o_ibus_adr\[15\]
*648 cpu\.ctrl\.o_ibus_adr\[16\]
*649 cpu\.ctrl\.o_ibus_adr\[17\]
*650 cpu\.ctrl\.o_ibus_adr\[18\]
*651 cpu\.ctrl\.o_ibus_adr\[19\]
*652 cpu\.ctrl\.o_ibus_adr\[1\]
*653 cpu\.ctrl\.o_ibus_adr\[20\]
*654 cpu\.ctrl\.o_ibus_adr\[21\]
*655 cpu\.ctrl\.o_ibus_adr\[22\]
*656 cpu\.ctrl\.o_ibus_adr\[23\]
*657 cpu\.ctrl\.o_ibus_adr\[24\]
*658 cpu\.ctrl\.o_ibus_adr\[25\]
*659 cpu\.ctrl\.o_ibus_adr\[26\]
*660 cpu\.ctrl\.o_ibus_adr\[27\]
*661 cpu\.ctrl\.o_ibus_adr\[28\]
*662 cpu\.ctrl\.o_ibus_adr\[29\]
*663 cpu\.ctrl\.o_ibus_adr\[2\]
*664 cpu\.ctrl\.o_ibus_adr\[30\]
*665 cpu\.ctrl\.o_ibus_adr\[31\]
*666 cpu\.ctrl\.o_ibus_adr\[3\]
*667 cpu\.ctrl\.o_ibus_adr\[4\]
*668 cpu\.ctrl\.o_ibus_adr\[5\]
*669 cpu\.ctrl\.o_ibus_adr\[6\]
*670 cpu\.ctrl\.o_ibus_adr\[7\]
*671 cpu\.ctrl\.o_ibus_adr\[8\]
*672 cpu\.ctrl\.o_ibus_adr\[9\]
*673 cpu\.ctrl\.pc_plus_4_cy_r
*674 cpu\.ctrl\.pc_plus_offset_cy_r
*675 cpu\.decode\.co_ebreak
*676 cpu\.decode\.co_mem_word
*677 cpu\.decode\.i_wb_en
*678 cpu\.decode\.opcode\[0\]
*679 cpu\.decode\.opcode\[1\]
*680 cpu\.decode\.opcode\[2\]
*681 cpu\.i_rf_ready
*682 cpu\.i_timer_irq
*683 cpu\.immdec\.imm11_7\[0\]
*684 cpu\.immdec\.imm11_7\[1\]
*685 cpu\.immdec\.imm11_7\[2\]
*686 cpu\.immdec\.imm11_7\[3\]
*687 cpu\.immdec\.imm11_7\[4\]
*688 cpu\.immdec\.imm19_12_20\[0\]
*689 cpu\.immdec\.imm19_12_20\[1\]
*690 cpu\.immdec\.imm19_12_20\[2\]
*691 cpu\.immdec\.imm19_12_20\[3\]
*692 cpu\.immdec\.imm19_12_20\[5\]
*693 cpu\.immdec\.imm19_12_20\[6\]
*694 cpu\.immdec\.imm19_12_20\[7\]
*695 cpu\.immdec\.imm19_12_20\[8\]
*696 cpu\.immdec\.imm24_20\[0\]
*697 cpu\.immdec\.imm24_20\[1\]
*698 cpu\.immdec\.imm24_20\[2\]
*699 cpu\.immdec\.imm24_20\[3\]
*700 cpu\.immdec\.imm24_20\[4\]
*701 cpu\.immdec\.imm30_25\[0\]
*702 cpu\.immdec\.imm30_25\[1\]
*703 cpu\.immdec\.imm30_25\[2\]
*704 cpu\.immdec\.imm30_25\[3\]
*705 cpu\.immdec\.imm30_25\[4\]
*706 cpu\.immdec\.imm30_25\[5\]
*707 cpu\.immdec\.imm31
*708 cpu\.immdec\.imm7
*709 cpu\.mem_bytecnt\[0\]
*710 cpu\.mem_bytecnt\[1\]
*711 cpu\.mem_if\.o_wb_sel\[0\]
*712 cpu\.mem_if\.o_wb_sel\[1\]
*713 cpu\.mem_if\.o_wb_sel\[2\]
*714 cpu\.mem_if\.o_wb_sel\[3\]
*715 cpu\.mem_if\.signbit
*716 cpu\.o_rf_wreq
*717 cpu\.o_wdata0
*718 cpu\.o_wen0
*719 cpu\.state\.ibus_cyc
*720 cpu\.state\.init_done
*721 cpu\.state\.o_cnt\[2\]
*722 cpu\.state\.o_cnt_r\[0\]
*723 cpu\.state\.o_cnt_r\[1\]
*724 cpu\.state\.o_cnt_r\[2\]
*725 cpu\.state\.o_cnt_r\[3\]
*726 cpu\.state\.stage_two_req
*727 net1
*728 net10
*729 net11
*730 net12
*731 net13
*732 net14
*733 net15
*734 net16
*735 net17
*736 net18
*737 net19
*738 net2
*739 net20
*740 net21
*741 net22
*742 net23
*743 net24
*744 net25
*745 net26
*746 net27
*747 net28
*748 net29
*749 net3
*750 net30
*751 net31
*752 net32
*753 net33
*754 net34
*755 net35
*756 net36
*757 net37
*758 net38
*759 net39
*760 net4
*761 net40
*762 net41
*763 net42
*764 net43
*765 net44
*766 net5
*767 net50
*768 net6
*769 net7
*770 net8
*771 net9
*772 u_arbiter\.i_wb_cpu_ack
*773 u_arbiter\.o_wb_cpu_adr\[0\]
*774 u_arbiter\.o_wb_cpu_adr\[10\]
*775 u_arbiter\.o_wb_cpu_adr\[11\]
*776 u_arbiter\.o_wb_cpu_adr\[12\]
*777 u_arbiter\.o_wb_cpu_adr\[13\]
*778 u_arbiter\.o_wb_cpu_adr\[14\]
*779 u_arbiter\.o_wb_cpu_adr\[15\]
*780 u_arbiter\.o_wb_cpu_adr\[16\]
*781 u_arbiter\.o_wb_cpu_adr\[17\]
*782 u_arbiter\.o_wb_cpu_adr\[18\]
*783 u_arbiter\.o_wb_cpu_adr\[19\]
*784 u_arbiter\.o_wb_cpu_adr\[1\]
*785 u_arbiter\.o_wb_cpu_adr\[20\]
*786 u_arbiter\.o_wb_cpu_adr\[21\]
*787 u_arbiter\.o_wb_cpu_adr\[22\]
*788 u_arbiter\.o_wb_cpu_adr\[23\]
*789 u_arbiter\.o_wb_cpu_adr\[24\]
*790 u_arbiter\.o_wb_cpu_adr\[25\]
*791 u_arbiter\.o_wb_cpu_adr\[26\]
*792 u_arbiter\.o_wb_cpu_adr\[27\]
*793 u_arbiter\.o_wb_cpu_adr\[28\]
*794 u_arbiter\.o_wb_cpu_adr\[29\]
*795 u_arbiter\.o_wb_cpu_adr\[2\]
*796 u_arbiter\.o_wb_cpu_adr\[30\]
*797 u_arbiter\.o_wb_cpu_adr\[31\]
*798 u_arbiter\.o_wb_cpu_adr\[3\]
*799 u_arbiter\.o_wb_cpu_adr\[4\]
*800 u_arbiter\.o_wb_cpu_adr\[5\]
*801 u_arbiter\.o_wb_cpu_adr\[6\]
*802 u_arbiter\.o_wb_cpu_adr\[7\]
*803 u_arbiter\.o_wb_cpu_adr\[8\]
*804 u_arbiter\.o_wb_cpu_adr\[9\]
*805 u_arbiter\.o_wb_cpu_cyc
*806 u_arbiter\.o_wb_cpu_we
*807 u_scanchain_local\.clk
*808 u_scanchain_local\.clk_out
*809 u_scanchain_local\.data_out
*810 u_scanchain_local\.data_out_i
*811 u_scanchain_local\.module_data_in\[37\]
*812 u_scanchain_local\.module_data_in\[38\]
*813 u_scanchain_local\.module_data_in\[39\]
*814 u_scanchain_local\.module_data_in\[40\]
*815 u_scanchain_local\.module_data_in\[41\]
*816 u_scanchain_local\.module_data_in\[42\]
*817 u_scanchain_local\.module_data_in\[43\]
*818 u_scanchain_local\.module_data_in\[44\]
*819 u_scanchain_local\.module_data_in\[45\]
*820 u_scanchain_local\.module_data_in\[46\]
*821 u_scanchain_local\.module_data_in\[47\]
*822 u_scanchain_local\.module_data_in\[48\]
*823 u_scanchain_local\.module_data_in\[49\]
*824 u_scanchain_local\.module_data_in\[50\]
*825 u_scanchain_local\.module_data_in\[51\]
*826 u_scanchain_local\.module_data_in\[52\]
*827 u_scanchain_local\.module_data_in\[53\]
*828 u_scanchain_local\.module_data_in\[54\]
*829 u_scanchain_local\.module_data_in\[55\]
*830 u_scanchain_local\.module_data_in\[56\]
*831 u_scanchain_local\.module_data_in\[57\]
*832 u_scanchain_local\.module_data_in\[58\]
*833 u_scanchain_local\.module_data_in\[59\]
*834 u_scanchain_local\.module_data_in\[60\]
*835 u_scanchain_local\.module_data_in\[61\]
*836 u_scanchain_local\.module_data_in\[62\]
*837 u_scanchain_local\.module_data_in\[63\]
*838 u_scanchain_local\.module_data_in\[64\]
*839 u_scanchain_local\.module_data_in\[65\]
*840 u_scanchain_local\.module_data_in\[66\]
*841 u_scanchain_local\.module_data_in\[67\]
*842 u_scanchain_local\.module_data_in\[68\]
*843 u_scanchain_local\.module_data_in\[69\]
*844 u_scanchain_local\.module_data_in\[70\]
*845 u_scanchain_local\.module_data_in\[71\]
*846 u_scanchain_local\.module_data_in\[72\]
*847 u_scanchain_local\.module_data_in\[73\]
*848 u_scanchain_local\.module_data_in\[74\]
*849 u_scanchain_local\.module_data_in\[75\]
*850 u_scanchain_local\.module_data_in\[76\]
*851 u_scanchain_local\.module_data_in\[77\]
*852 u_scanchain_local\.module_data_in\[78\]
*853 u_scanchain_local\.module_data_in\[79\]
*854 u_scanchain_local\.module_data_in\[80\]
*855 u_scanchain_local\.module_data_in\[81\]
*856 u_scanchain_local\.module_data_in\[82\]
*857 u_scanchain_local\.module_data_in\[83\]
*858 u_scanchain_local\.module_data_in\[84\]
*859 u_scanchain_local\.module_data_in\[85\]
*860 u_scanchain_local\.module_data_in\[86\]
*861 u_scanchain_local\.module_data_in\[87\]
*862 u_scanchain_local\.module_data_in\[88\]
*863 u_scanchain_local\.module_data_in\[89\]
*864 u_scanchain_local\.module_data_in\[90\]
*865 u_scanchain_local\.module_data_in\[91\]
*866 u_scanchain_local\.module_data_in\[92\]
*867 u_scanchain_local\.module_data_in\[93\]
*868 u_scanchain_local\.module_data_in\[94\]
*869 u_scanchain_local\.module_data_in\[95\]
*870 u_scanchain_local\.scan_select_out
*871 FILLER_0_103
*872 FILLER_0_111
*873 FILLER_0_113
*874 FILLER_0_137
*875 FILLER_0_141
*876 FILLER_0_153
*877 FILLER_0_165
*878 FILLER_0_169
*879 FILLER_0_194
*880 FILLER_0_197
*881 FILLER_0_222
*882 FILLER_0_225
*883 FILLER_0_237
*884 FILLER_0_249
*885 FILLER_0_253
*886 FILLER_0_26
*887 FILLER_0_265
*888 FILLER_0_277
*889 FILLER_0_281
*890 FILLER_0_29
*891 FILLER_0_293
*892 FILLER_0_3
*893 FILLER_0_37
*894 FILLER_0_45
*895 FILLER_0_53
*896 FILLER_0_57
*897 FILLER_0_69
*898 FILLER_0_81
*899 FILLER_0_85
*900 FILLER_10_108
*901 FILLER_10_11
*902 FILLER_10_128
*903 FILLER_10_141
*904 FILLER_10_154
*905 FILLER_10_162
*906 FILLER_10_185
*907 FILLER_10_189
*908 FILLER_10_194
*909 FILLER_10_197
*910 FILLER_10_204
*911 FILLER_10_208
*912 FILLER_10_23
*913 FILLER_10_230
*914 FILLER_10_242
*915 FILLER_10_250
*916 FILLER_10_253
*917 FILLER_10_27
*918 FILLER_10_276
*919 FILLER_10_288
*920 FILLER_10_29
*921 FILLER_10_296
*922 FILLER_10_3
*923 FILLER_10_44
*924 FILLER_10_59
*925 FILLER_10_7
*926 FILLER_10_72
*927 FILLER_10_82
*928 FILLER_10_85
*929 FILLER_11_110
*930 FILLER_11_113
*931 FILLER_11_121
*932 FILLER_11_132
*933 FILLER_11_145
*934 FILLER_11_165
*935 FILLER_11_169
*936 FILLER_11_175
*937 FILLER_11_192
*938 FILLER_11_200
*939 FILLER_11_218
*940 FILLER_11_225
*941 FILLER_11_235
*942 FILLER_11_255
*943 FILLER_11_263
*944 FILLER_11_275
*945 FILLER_11_279
*946 FILLER_11_281
*947 FILLER_11_293
*948 FILLER_11_3
*949 FILLER_11_33
*950 FILLER_11_40
*951 FILLER_11_44
*952 FILLER_11_54
*953 FILLER_11_57
*954 FILLER_11_69
*955 FILLER_11_75
*956 FILLER_11_8
*957 FILLER_11_97
*958 FILLER_12_113
*959 FILLER_12_138
*960 FILLER_12_141
*961 FILLER_12_15
*962 FILLER_12_153
*963 FILLER_12_160
*964 FILLER_12_168
*965 FILLER_12_178
*966 FILLER_12_190
*967 FILLER_12_197
*968 FILLER_12_20
*969 FILLER_12_207
*970 FILLER_12_236
*971 FILLER_12_245
*972 FILLER_12_251
*973 FILLER_12_253
*974 FILLER_12_276
*975 FILLER_12_288
*976 FILLER_12_29
*977 FILLER_12_296
*978 FILLER_12_3
*979 FILLER_12_33
*980 FILLER_12_50
*981 FILLER_12_58
*982 FILLER_12_66
*983 FILLER_12_79
*984 FILLER_12_83
*985 FILLER_12_85
*986 FILLER_12_96
*987 FILLER_13_11
*988 FILLER_13_110
*989 FILLER_13_113
*990 FILLER_13_117
*991 FILLER_13_127
*992 FILLER_13_139
*993 FILLER_13_166
*994 FILLER_13_169
*995 FILLER_13_174
*996 FILLER_13_183
*997 FILLER_13_189
*998 FILLER_13_197
*999 FILLER_13_207
*1000 FILLER_13_216
*1001 FILLER_13_225
*1002 FILLER_13_229
*1003 FILLER_13_235
*1004 FILLER_13_255
*1005 FILLER_13_267
*1006 FILLER_13_279
*1007 FILLER_13_28
*1008 FILLER_13_281
*1009 FILLER_13_293
*1010 FILLER_13_3
*1011 FILLER_13_41
*1012 FILLER_13_54
*1013 FILLER_13_57
*1014 FILLER_13_80
*1015 FILLER_13_86
*1016 FILLER_13_90
*1017 FILLER_14_117
*1018 FILLER_14_12
*1019 FILLER_14_137
*1020 FILLER_14_141
*1021 FILLER_14_149
*1022 FILLER_14_162
*1023 FILLER_14_170
*1024 FILLER_14_178
*1025 FILLER_14_194
*1026 FILLER_14_197
*1027 FILLER_14_207
*1028 FILLER_14_234
*1029 FILLER_14_246
*1030 FILLER_14_25
*1031 FILLER_14_253
*1032 FILLER_14_265
*1033 FILLER_14_277
*1034 FILLER_14_289
*1035 FILLER_14_29
*1036 FILLER_14_297
*1037 FILLER_14_3
*1038 FILLER_14_53
*1039 FILLER_14_60
*1040 FILLER_14_7
*1041 FILLER_14_72
*1042 FILLER_14_78
*1043 FILLER_14_82
*1044 FILLER_14_85
*1045 FILLER_14_91
*1046 FILLER_14_95
*1047 FILLER_15_100
*1048 FILLER_15_107
*1049 FILLER_15_111
*1050 FILLER_15_113
*1051 FILLER_15_118
*1052 FILLER_15_122
*1053 FILLER_15_144
*1054 FILLER_15_15
*1055 FILLER_15_156
*1056 FILLER_15_166
*1057 FILLER_15_169
*1058 FILLER_15_176
*1059 FILLER_15_185
*1060 FILLER_15_197
*1061 FILLER_15_203
*1062 FILLER_15_220
*1063 FILLER_15_225
*1064 FILLER_15_231
*1065 FILLER_15_240
*1066 FILLER_15_246
*1067 FILLER_15_268
*1068 FILLER_15_281
*1069 FILLER_15_293
*1070 FILLER_15_3
*1071 FILLER_15_32
*1072 FILLER_15_47
*1073 FILLER_15_55
*1074 FILLER_15_57
*1075 FILLER_15_8
*1076 FILLER_15_80
*1077 FILLER_16_103
*1078 FILLER_16_110
*1079 FILLER_16_119
*1080 FILLER_16_132
*1081 FILLER_16_141
*1082 FILLER_16_149
*1083 FILLER_16_158
*1084 FILLER_16_170
*1085 FILLER_16_177
*1086 FILLER_16_183
*1087 FILLER_16_192
*1088 FILLER_16_197
*1089 FILLER_16_204
*1090 FILLER_16_208
*1091 FILLER_16_23
*1092 FILLER_16_230
*1093 FILLER_16_250
*1094 FILLER_16_253
*1095 FILLER_16_265
*1096 FILLER_16_27
*1097 FILLER_16_277
*1098 FILLER_16_289
*1099 FILLER_16_29
*1100 FILLER_16_297
*1101 FILLER_16_3
*1102 FILLER_16_37
*1103 FILLER_16_48
*1104 FILLER_16_61
*1105 FILLER_16_73
*1106 FILLER_16_82
*1107 FILLER_16_85
*1108 FILLER_17_104
*1109 FILLER_17_113
*1110 FILLER_17_124
*1111 FILLER_17_128
*1112 FILLER_17_15
*1113 FILLER_17_150
*1114 FILLER_17_154
*1115 FILLER_17_164
*1116 FILLER_17_169
*1117 FILLER_17_187
*1118 FILLER_17_195
*1119 FILLER_17_215
*1120 FILLER_17_223
*1121 FILLER_17_225
*1122 FILLER_17_233
*1123 FILLER_17_253
*1124 FILLER_17_26
*1125 FILLER_17_265
*1126 FILLER_17_277
*1127 FILLER_17_281
*1128 FILLER_17_293
*1129 FILLER_17_3
*1130 FILLER_17_46
*1131 FILLER_17_53
*1132 FILLER_17_57
*1133 FILLER_17_65
*1134 FILLER_17_69
*1135 FILLER_17_91
*1136 FILLER_18_119
*1137 FILLER_18_12
*1138 FILLER_18_127
*1139 FILLER_18_138
*1140 FILLER_18_141
*1141 FILLER_18_150
*1142 FILLER_18_157
*1143 FILLER_18_168
*1144 FILLER_18_176
*1145 FILLER_18_182
*1146 FILLER_18_193
*1147 FILLER_18_197
*1148 FILLER_18_207
*1149 FILLER_18_213
*1150 FILLER_18_22
*1151 FILLER_18_235
*1152 FILLER_18_244
*1153 FILLER_18_253
*1154 FILLER_18_276
*1155 FILLER_18_288
*1156 FILLER_18_29
*1157 FILLER_18_296
*1158 FILLER_18_3
*1159 FILLER_18_37
*1160 FILLER_18_59
*1161 FILLER_18_66
*1162 FILLER_18_79
*1163 FILLER_18_8
*1164 FILLER_18_83
*1165 FILLER_18_85
*1166 FILLER_18_90
*1167 FILLER_18_94
*1168 FILLER_18_98
*1169 FILLER_19_102
*1170 FILLER_19_110
*1171 FILLER_19_113
*1172 FILLER_19_125
*1173 FILLER_19_137
*1174 FILLER_19_159
*1175 FILLER_19_166
*1176 FILLER_19_169
*1177 FILLER_19_180
*1178 FILLER_19_200
*1179 FILLER_19_204
*1180 FILLER_19_209
*1181 FILLER_19_21
*1182 FILLER_19_221
*1183 FILLER_19_225
*1184 FILLER_19_237
*1185 FILLER_19_244
*1186 FILLER_19_256
*1187 FILLER_19_268
*1188 FILLER_19_281
*1189 FILLER_19_29
*1190 FILLER_19_293
*1191 FILLER_19_3
*1192 FILLER_19_48
*1193 FILLER_19_57
*1194 FILLER_19_68
*1195 FILLER_19_84
*1196 FILLER_19_92
*1197 FILLER_1_108
*1198 FILLER_1_113
*1199 FILLER_1_119
*1200 FILLER_1_141
*1201 FILLER_1_166
*1202 FILLER_1_169
*1203 FILLER_1_17
*1204 FILLER_1_192
*1205 FILLER_1_21
*1206 FILLER_1_217
*1207 FILLER_1_223
*1208 FILLER_1_225
*1209 FILLER_1_237
*1210 FILLER_1_249
*1211 FILLER_1_261
*1212 FILLER_1_273
*1213 FILLER_1_279
*1214 FILLER_1_281
*1215 FILLER_1_293
*1216 FILLER_1_3
*1217 FILLER_1_48
*1218 FILLER_1_57
*1219 FILLER_1_61
*1220 FILLER_1_83
*1221 FILLER_1_9
*1222 FILLER_20_10
*1223 FILLER_20_105
*1224 FILLER_20_109
*1225 FILLER_20_119
*1226 FILLER_20_123
*1227 FILLER_20_127
*1228 FILLER_20_138
*1229 FILLER_20_141
*1230 FILLER_20_148
*1231 FILLER_20_157
*1232 FILLER_20_16
*1233 FILLER_20_161
*1234 FILLER_20_183
*1235 FILLER_20_195
*1236 FILLER_20_197
*1237 FILLER_20_204
*1238 FILLER_20_216
*1239 FILLER_20_228
*1240 FILLER_20_236
*1241 FILLER_20_246
*1242 FILLER_20_253
*1243 FILLER_20_26
*1244 FILLER_20_265
*1245 FILLER_20_277
*1246 FILLER_20_289
*1247 FILLER_20_29
*1248 FILLER_20_297
*1249 FILLER_20_3
*1250 FILLER_20_34
*1251 FILLER_20_47
*1252 FILLER_20_68
*1253 FILLER_20_74
*1254 FILLER_20_82
*1255 FILLER_20_85
*1256 FILLER_20_92
*1257 FILLER_21_108
*1258 FILLER_21_113
*1259 FILLER_21_119
*1260 FILLER_21_124
*1261 FILLER_21_133
*1262 FILLER_21_137
*1263 FILLER_21_141
*1264 FILLER_21_166
*1265 FILLER_21_169
*1266 FILLER_21_185
*1267 FILLER_21_194
*1268 FILLER_21_207
*1269 FILLER_21_214
*1270 FILLER_21_218
*1271 FILLER_21_222
*1272 FILLER_21_225
*1273 FILLER_21_236
*1274 FILLER_21_256
*1275 FILLER_21_268
*1276 FILLER_21_27
*1277 FILLER_21_281
*1278 FILLER_21_293
*1279 FILLER_21_3
*1280 FILLER_21_40
*1281 FILLER_21_50
*1282 FILLER_21_57
*1283 FILLER_21_62
*1284 FILLER_21_69
*1285 FILLER_21_80
*1286 FILLER_21_84
*1287 FILLER_21_94
*1288 FILLER_21_98
*1289 FILLER_22_115
*1290 FILLER_22_136
*1291 FILLER_22_141
*1292 FILLER_22_152
*1293 FILLER_22_162
*1294 FILLER_22_172
*1295 FILLER_22_18
*1296 FILLER_22_181
*1297 FILLER_22_189
*1298 FILLER_22_195
*1299 FILLER_22_197
*1300 FILLER_22_215
*1301 FILLER_22_219
*1302 FILLER_22_236
*1303 FILLER_22_240
*1304 FILLER_22_250
*1305 FILLER_22_253
*1306 FILLER_22_26
*1307 FILLER_22_265
*1308 FILLER_22_277
*1309 FILLER_22_289
*1310 FILLER_22_29
*1311 FILLER_22_297
*1312 FILLER_22_3
*1313 FILLER_22_42
*1314 FILLER_22_50
*1315 FILLER_22_60
*1316 FILLER_22_81
*1317 FILLER_22_85
*1318 FILLER_22_89
*1319 FILLER_22_95
*1320 FILLER_23_100
*1321 FILLER_23_108
*1322 FILLER_23_113
*1323 FILLER_23_119
*1324 FILLER_23_127
*1325 FILLER_23_132
*1326 FILLER_23_152
*1327 FILLER_23_16
*1328 FILLER_23_160
*1329 FILLER_23_169
*1330 FILLER_23_173
*1331 FILLER_23_177
*1332 FILLER_23_202
*1333 FILLER_23_215
*1334 FILLER_23_223
*1335 FILLER_23_225
*1336 FILLER_23_23
*1337 FILLER_23_236
*1338 FILLER_23_243
*1339 FILLER_23_255
*1340 FILLER_23_267
*1341 FILLER_23_279
*1342 FILLER_23_281
*1343 FILLER_23_293
*1344 FILLER_23_3
*1345 FILLER_23_44
*1346 FILLER_23_48
*1347 FILLER_23_54
*1348 FILLER_23_57
*1349 FILLER_23_75
*1350 FILLER_23_9
*1351 FILLER_23_91
*1352 FILLER_24_100
*1353 FILLER_24_109
*1354 FILLER_24_117
*1355 FILLER_24_126
*1356 FILLER_24_130
*1357 FILLER_24_138
*1358 FILLER_24_141
*1359 FILLER_24_150
*1360 FILLER_24_170
*1361 FILLER_24_182
*1362 FILLER_24_192
*1363 FILLER_24_197
*1364 FILLER_24_220
*1365 FILLER_24_232
*1366 FILLER_24_236
*1367 FILLER_24_246
*1368 FILLER_24_253
*1369 FILLER_24_26
*1370 FILLER_24_264
*1371 FILLER_24_276
*1372 FILLER_24_288
*1373 FILLER_24_29
*1374 FILLER_24_296
*1375 FILLER_24_3
*1376 FILLER_24_33
*1377 FILLER_24_37
*1378 FILLER_24_44
*1379 FILLER_24_64
*1380 FILLER_24_68
*1381 FILLER_24_78
*1382 FILLER_24_85
*1383 FILLER_24_91
*1384 FILLER_25_103
*1385 FILLER_25_110
*1386 FILLER_25_113
*1387 FILLER_25_130
*1388 FILLER_25_138
*1389 FILLER_25_144
*1390 FILLER_25_15
*1391 FILLER_25_152
*1392 FILLER_25_156
*1393 FILLER_25_166
*1394 FILLER_25_169
*1395 FILLER_25_175
*1396 FILLER_25_200
*1397 FILLER_25_212
*1398 FILLER_25_225
*1399 FILLER_25_236
*1400 FILLER_25_256
*1401 FILLER_25_268
*1402 FILLER_25_281
*1403 FILLER_25_293
*1404 FILLER_25_3
*1405 FILLER_25_44
*1406 FILLER_25_54
*1407 FILLER_25_57
*1408 FILLER_25_72
*1409 FILLER_25_82
*1410 FILLER_25_88
*1411 FILLER_25_94
*1412 FILLER_26_106
*1413 FILLER_26_128
*1414 FILLER_26_134
*1415 FILLER_26_138
*1416 FILLER_26_141
*1417 FILLER_26_152
*1418 FILLER_26_165
*1419 FILLER_26_179
*1420 FILLER_26_188
*1421 FILLER_26_197
*1422 FILLER_26_208
*1423 FILLER_26_212
*1424 FILLER_26_234
*1425 FILLER_26_247
*1426 FILLER_26_251
*1427 FILLER_26_253
*1428 FILLER_26_26
*1429 FILLER_26_264
*1430 FILLER_26_276
*1431 FILLER_26_288
*1432 FILLER_26_29
*1433 FILLER_26_296
*1434 FILLER_26_3
*1435 FILLER_26_40
*1436 FILLER_26_48
*1437 FILLER_26_59
*1438 FILLER_26_65
*1439 FILLER_26_71
*1440 FILLER_26_82
*1441 FILLER_26_85
*1442 FILLER_26_9
*1443 FILLER_26_95
*1444 FILLER_27_109
*1445 FILLER_27_113
*1446 FILLER_27_117
*1447 FILLER_27_12
*1448 FILLER_27_127
*1449 FILLER_27_136
*1450 FILLER_27_144
*1451 FILLER_27_166
*1452 FILLER_27_169
*1453 FILLER_27_177
*1454 FILLER_27_184
*1455 FILLER_27_192
*1456 FILLER_27_198
*1457 FILLER_27_20
*1458 FILLER_27_218
*1459 FILLER_27_225
*1460 FILLER_27_243
*1461 FILLER_27_263
*1462 FILLER_27_275
*1463 FILLER_27_279
*1464 FILLER_27_281
*1465 FILLER_27_293
*1466 FILLER_27_3
*1467 FILLER_27_32
*1468 FILLER_27_36
*1469 FILLER_27_41
*1470 FILLER_27_50
*1471 FILLER_27_57
*1472 FILLER_27_66
*1473 FILLER_27_73
*1474 FILLER_27_82
*1475 FILLER_27_96
*1476 FILLER_28_100
*1477 FILLER_28_112
*1478 FILLER_28_120
*1479 FILLER_28_128
*1480 FILLER_28_138
*1481 FILLER_28_141
*1482 FILLER_28_151
*1483 FILLER_28_173
*1484 FILLER_28_182
*1485 FILLER_28_189
*1486 FILLER_28_195
*1487 FILLER_28_197
*1488 FILLER_28_20
*1489 FILLER_28_208
*1490 FILLER_28_221
*1491 FILLER_28_229
*1492 FILLER_28_235
*1493 FILLER_28_245
*1494 FILLER_28_251
*1495 FILLER_28_253
*1496 FILLER_28_265
*1497 FILLER_28_277
*1498 FILLER_28_289
*1499 FILLER_28_29
*1500 FILLER_28_297
*1501 FILLER_28_3
*1502 FILLER_28_38
*1503 FILLER_28_49
*1504 FILLER_28_57
*1505 FILLER_28_65
*1506 FILLER_28_73
*1507 FILLER_28_8
*1508 FILLER_28_81
*1509 FILLER_28_85
*1510 FILLER_29_103
*1511 FILLER_29_110
*1512 FILLER_29_113
*1513 FILLER_29_120
*1514 FILLER_29_132
*1515 FILLER_29_136
*1516 FILLER_29_153
*1517 FILLER_29_161
*1518 FILLER_29_167
*1519 FILLER_29_169
*1520 FILLER_29_17
*1521 FILLER_29_173
*1522 FILLER_29_195
*1523 FILLER_29_208
*1524 FILLER_29_221
*1525 FILLER_29_225
*1526 FILLER_29_230
*1527 FILLER_29_241
*1528 FILLER_29_253
*1529 FILLER_29_265
*1530 FILLER_29_277
*1531 FILLER_29_281
*1532 FILLER_29_293
*1533 FILLER_29_3
*1534 FILLER_29_35
*1535 FILLER_29_43
*1536 FILLER_29_54
*1537 FILLER_29_57
*1538 FILLER_29_63
*1539 FILLER_29_71
*1540 FILLER_29_81
*1541 FILLER_29_85
*1542 FILLER_29_9
*1543 FILLER_29_93
*1544 FILLER_29_99
*1545 FILLER_2_122
*1546 FILLER_2_134
*1547 FILLER_2_141
*1548 FILLER_2_151
*1549 FILLER_2_159
*1550 FILLER_2_177