*SPEF "ieee 1481-1999"
*DESIGN "guianmonezm_ezmcpu"
*DATE "11:11:11 Fri 11 11, 1111"
*VENDOR "OpenRCX"
*PROGRAM "Parallel Extraction"
*VERSION "1.0"
*DESIGN_FLOW "NAME_SCOPE LOCAL" "PIN_CAP NONE"
*DIVIDER /
*DELIMITER :
*BUS_DELIMITER []
*T_UNIT 1 NS
*C_UNIT 1 PF
*R_UNIT 1 OHM
*L_UNIT 1 HENRY

*NAME_MAP
*1 io_in[0]
*2 io_in[1]
*3 io_in[2]
*4 io_in[3]
*5 io_in[4]
*6 io_in[5]
*7 io_in[6]
*8 io_in[7]
*9 io_out[0]
*10 io_out[1]
*11 io_out[2]
*12 io_out[3]
*13 io_out[4]
*14 io_out[5]
*15 io_out[6]
*16 io_out[7]
*19 _000_
*20 _001_
*21 _002_
*22 _003_
*23 _004_
*24 _005_
*25 _006_
*26 _007_
*27 _008_
*28 _009_
*29 _010_
*30 _011_
*31 _012_
*32 _013_
*33 _014_
*34 _015_
*35 _016_
*36 _017_
*37 _018_
*38 _019_
*39 _020_
*40 _021_
*41 _022_
*42 _023_
*43 _024_
*44 _025_
*45 _026_
*46 _027_
*47 _028_
*48 _029_
*49 _030_
*50 _031_
*51 _032_
*52 _033_
*53 _034_
*54 _035_
*55 _036_
*56 _037_
*57 _038_
*58 _039_
*59 _040_
*60 _041_
*61 _042_
*62 _043_
*63 _044_
*64 _045_
*65 _046_
*66 _047_
*67 _048_
*68 _049_
*69 _050_
*70 _051_
*71 _052_
*72 _053_
*73 _054_
*74 _055_
*75 _056_
*76 _057_
*77 _058_
*78 _059_
*79 _060_
*80 _061_
*81 _062_
*82 _063_
*83 _064_
*84 _065_
*85 _066_
*86 _067_
*87 _068_
*88 _069_
*89 _070_
*90 _071_
*91 _072_
*92 _073_
*93 _074_
*94 _075_
*95 _076_
*96 _077_
*97 _078_
*98 _079_
*99 _080_
*100 _081_
*101 _082_
*102 _083_
*103 _084_
*104 _085_
*105 _086_
*106 _087_
*107 _088_
*108 _089_
*109 _090_
*110 _091_
*111 _092_
*112 _093_
*113 _094_
*114 _095_
*115 _096_
*116 _097_
*117 _098_
*118 _099_
*119 _100_
*120 _101_
*121 _102_
*122 _103_
*123 _104_
*124 _105_
*125 _106_
*126 _107_
*127 _108_
*128 _109_
*129 _110_
*130 _111_
*131 _112_
*132 _113_
*133 _114_
*134 _115_
*135 _116_
*136 _117_
*137 _118_
*138 _119_
*139 _120_
*140 _121_
*141 _122_
*142 _123_
*143 _124_
*144 _125_
*145 _126_
*146 _127_
*147 _128_
*148 _129_
*149 _130_
*150 _131_
*151 _132_
*152 _133_
*153 _134_
*154 _135_
*155 _136_
*156 _137_
*157 _138_
*158 _139_
*159 _140_
*160 _141_
*161 _142_
*162 _143_
*163 _144_
*164 _145_
*165 _146_
*166 _147_
*167 _148_
*168 _149_
*169 _150_
*170 _151_
*171 _152_
*172 _153_
*173 _154_
*174 _155_
*175 _156_
*176 _157_
*177 _158_
*178 _159_
*179 _160_
*180 _161_
*181 _162_
*182 _163_
*183 _164_
*184 _165_
*185 _166_
*186 _167_
*187 _168_
*188 _169_
*189 _170_
*190 _171_
*191 _172_
*192 _173_
*193 _174_
*194 _175_
*195 _176_
*196 _177_
*197 _178_
*198 _179_
*199 _180_
*200 _181_
*201 _182_
*202 _183_
*203 _184_
*204 _185_
*205 _186_
*206 _187_
*207 _188_
*208 _189_
*209 _190_
*210 _191_
*211 _192_
*212 _193_
*213 _194_
*214 _195_
*215 _196_
*216 _197_
*217 _198_
*218 _199_
*219 _200_
*220 _201_
*221 _202_
*222 _203_
*223 _204_
*224 _205_
*225 _206_
*226 _207_
*227 _208_
*228 _209_
*229 _210_
*230 _211_
*231 _212_
*232 _213_
*233 _214_
*234 _215_
*235 _216_
*236 _217_
*237 _218_
*238 _219_
*239 _220_
*240 _221_
*241 _222_
*242 _223_
*243 _224_
*244 _225_
*245 _226_
*246 _227_
*247 _228_
*248 _229_
*249 _230_
*250 _231_
*251 _232_
*252 _233_
*253 _234_
*254 _235_
*255 _236_
*256 _237_
*257 _238_
*258 _239_
*259 _240_
*260 _241_
*261 _242_
*262 _243_
*263 _244_
*264 _245_
*265 _246_
*266 _247_
*267 _248_
*268 _249_
*269 _250_
*270 _251_
*271 _252_
*272 _253_
*273 _254_
*274 _255_
*275 _256_
*276 _257_
*277 _258_
*278 _259_
*279 _260_
*280 _261_
*281 _262_
*282 _263_
*283 _264_
*284 _265_
*285 _266_
*286 _267_
*287 _268_
*288 _269_
*289 _270_
*290 _271_
*291 _272_
*292 _273_
*293 _274_
*294 _275_
*295 _276_
*296 _277_
*297 _278_
*298 _279_
*299 _280_
*300 _281_
*301 _282_
*302 _283_
*303 _284_
*304 _285_
*305 _286_
*306 _287_
*307 _288_
*308 _289_
*309 _290_
*310 _291_
*311 _292_
*312 _293_
*313 _294_
*314 _295_
*315 cpu_top\.bank\[0\]\[0\]
*316 cpu_top\.bank\[0\]\[1\]
*317 cpu_top\.bank\[0\]\[2\]
*318 cpu_top\.bank\[0\]\[3\]
*319 cpu_top\.bank\[0\]\[4\]
*320 cpu_top\.bank\[0\]\[5\]
*321 cpu_top\.bank\[0\]\[6\]
*322 cpu_top\.bank\[0\]\[7\]
*323 cpu_top\.bank\[1\]\[0\]
*324 cpu_top\.bank\[1\]\[1\]
*325 cpu_top\.bank\[1\]\[2\]
*326 cpu_top\.bank\[1\]\[3\]
*327 cpu_top\.bank\[1\]\[4\]
*328 cpu_top\.bank\[1\]\[5\]
*329 cpu_top\.bank\[1\]\[6\]
*330 cpu_top\.bank\[1\]\[7\]
*331 cpu_top\.bank\[2\]\[0\]
*332 cpu_top\.bank\[2\]\[1\]
*333 cpu_top\.bank\[2\]\[2\]
*334 cpu_top\.bank\[2\]\[3\]
*335 cpu_top\.bank\[2\]\[4\]
*336 cpu_top\.bank\[2\]\[5\]
*337 cpu_top\.bank\[2\]\[6\]
*338 cpu_top\.bank\[2\]\[7\]
*339 cpu_top\.bank\[3\]\[0\]
*340 cpu_top\.bank\[3\]\[1\]
*341 cpu_top\.bank\[3\]\[2\]
*342 cpu_top\.bank\[3\]\[3\]
*343 cpu_top\.bank\[3\]\[4\]
*344 cpu_top\.bank\[3\]\[5\]
*345 cpu_top\.bank\[3\]\[6\]
*346 cpu_top\.bank\[3\]\[7\]
*347 cpu_top\.bank\[4\]\[0\]
*348 cpu_top\.bank\[4\]\[1\]
*349 cpu_top\.bank\[4\]\[2\]
*350 cpu_top\.bank\[4\]\[3\]
*351 cpu_top\.bank\[4\]\[4\]
*352 cpu_top\.bank\[4\]\[5\]
*353 cpu_top\.bank\[4\]\[6\]
*354 cpu_top\.bank\[4\]\[7\]
*355 cpu_top\.bank\[5\]\[0\]
*356 cpu_top\.bank\[5\]\[1\]
*357 cpu_top\.bank\[5\]\[2\]
*358 cpu_top\.bank\[5\]\[3\]
*359 cpu_top\.bank\[5\]\[4\]
*360 cpu_top\.bank\[5\]\[5\]
*361 cpu_top\.bank\[5\]\[6\]
*362 cpu_top\.bank\[5\]\[7\]
*363 cpu_top\.bank\[6\]\[0\]
*364 cpu_top\.bank\[6\]\[1\]
*365 cpu_top\.bank\[6\]\[2\]
*366 cpu_top\.bank\[6\]\[3\]
*367 cpu_top\.bank\[6\]\[4\]
*368 cpu_top\.bank\[6\]\[5\]
*369 cpu_top\.bank\[6\]\[6\]
*370 cpu_top\.bank\[6\]\[7\]
*371 cpu_top\.bank\[7\]\[0\]
*372 cpu_top\.bank\[7\]\[1\]
*373 cpu_top\.bank\[7\]\[2\]
*374 cpu_top\.bank\[7\]\[3\]
*375 cpu_top\.bank\[7\]\[4\]
*376 cpu_top\.bank\[7\]\[5\]
*377 cpu_top\.bank\[7\]\[6\]
*378 cpu_top\.bank\[7\]\[7\]
*379 cpu_top\.c\[0\]
*380 cpu_top\.c\[1\]
*381 cpu_top\.c\[2\]
*382 cpu_top\.c\[3\]
*383 cpu_top\.c\[4\]
*384 cpu_top\.c\[5\]
*385 cpu_top\.c\[6\]
*386 cpu_top\.c\[7\]
*387 cpu_top\.instruction\[0\]
*388 cpu_top\.instruction\[1\]
*389 cpu_top\.instruction\[2\]
*390 cpu_top\.instruction_buffer\[0\]
*391 cpu_top\.instruction_buffer\[1\]
*392 cpu_top\.instruction_buffer\[2\]
*393 cpu_top\.instruction_buffer\[3\]
*394 cpu_top\.instruction_buffer\[4\]
*395 cpu_top\.pc\[0\]
*396 cpu_top\.pc\[1\]
*397 cpu_top\.pc\[2\]
*398 cpu_top\.pc\[3\]
*399 cpu_top\.pc\[4\]
*400 cpu_top\.pc\[5\]
*401 cpu_top\.pc\[6\]
*402 cpu_top\.pc\[7\]
*403 cpu_top\.state
*404 net1
*405 net2
*406 net3
*407 net4
*408 net5
*409 net6
*410 net7
*411 FILLER_0_109
*412 FILLER_0_113
*413 FILLER_0_125
*414 FILLER_0_137
*415 FILLER_0_141
*416 FILLER_0_15
*417 FILLER_0_153
*418 FILLER_0_165
*419 FILLER_0_169
*420 FILLER_0_181
*421 FILLER_0_193
*422 FILLER_0_197
*423 FILLER_0_209
*424 FILLER_0_221
*425 FILLER_0_225
*426 FILLER_0_237
*427 FILLER_0_249
*428 FILLER_0_253
*429 FILLER_0_265
*430 FILLER_0_27
*431 FILLER_0_277
*432 FILLER_0_281
*433 FILLER_0_29
*434 FILLER_0_293
*435 FILLER_0_3
*436 FILLER_0_41
*437 FILLER_0_53
*438 FILLER_0_57
*439 FILLER_0_69
*440 FILLER_0_81
*441 FILLER_0_85
*442 FILLER_0_97
*443 FILLER_10_118
*444 FILLER_10_131
*445 FILLER_10_139
*446 FILLER_10_141
*447 FILLER_10_153
*448 FILLER_10_165
*449 FILLER_10_177
*450 FILLER_10_18
*451 FILLER_10_189
*452 FILLER_10_195
*453 FILLER_10_197
*454 FILLER_10_209
*455 FILLER_10_221
*456 FILLER_10_233
*457 FILLER_10_245
*458 FILLER_10_25
*459 FILLER_10_251
*460 FILLER_10_253
*461 FILLER_10_265
*462 FILLER_10_277
*463 FILLER_10_289
*464 FILLER_10_29
*465 FILLER_10_297
*466 FILLER_10_3
*467 FILLER_10_35
*468 FILLER_10_51
*469 FILLER_10_69
*470 FILLER_10_80
*471 FILLER_10_85
*472 FILLER_10_99
*473 FILLER_11_110
*474 FILLER_11_113
*475 FILLER_11_119
*476 FILLER_11_132
*477 FILLER_11_144
*478 FILLER_11_156
*479 FILLER_11_169
*480 FILLER_11_18
*481 FILLER_11_181
*482 FILLER_11_193
*483 FILLER_11_205
*484 FILLER_11_217
*485 FILLER_11_223
*486 FILLER_11_225
*487 FILLER_11_237
*488 FILLER_11_249
*489 FILLER_11_261
*490 FILLER_11_27
*491 FILLER_11_273
*492 FILLER_11_279
*493 FILLER_11_281
*494 FILLER_11_293
*495 FILLER_11_3
*496 FILLER_11_40
*497 FILLER_11_54
*498 FILLER_11_57
*499 FILLER_11_73
*500 FILLER_11_81
*501 FILLER_11_94
*502 FILLER_12_10
*503 FILLER_12_104
*504 FILLER_12_117
*505 FILLER_12_133
*506 FILLER_12_139
*507 FILLER_12_141
*508 FILLER_12_153
*509 FILLER_12_165
*510 FILLER_12_177
*511 FILLER_12_189
*512 FILLER_12_195
*513 FILLER_12_197
*514 FILLER_12_209
*515 FILLER_12_221
*516 FILLER_12_233
*517 FILLER_12_245
*518 FILLER_12_251
*519 FILLER_12_253
*520 FILLER_12_26
*521 FILLER_12_265
*522 FILLER_12_277
*523 FILLER_12_289
*524 FILLER_12_29
*525 FILLER_12_297
*526 FILLER_12_3
*527 FILLER_12_41
*528 FILLER_12_64
*529 FILLER_12_80
*530 FILLER_12_85
*531 FILLER_12_91
*532 FILLER_13_110
*533 FILLER_13_113
*534 FILLER_13_121
*535 FILLER_13_13
*536 FILLER_13_133
*537 FILLER_13_145
*538 FILLER_13_157
*539 FILLER_13_165
*540 FILLER_13_169
*541 FILLER_13_181
*542 FILLER_13_193
*543 FILLER_13_205
*544 FILLER_13_217
*545 FILLER_13_223
*546 FILLER_13_225
*547 FILLER_13_237
*548 FILLER_13_249
*549 FILLER_13_25
*550 FILLER_13_261
*551 FILLER_13_273
*552 FILLER_13_279
*553 FILLER_13_281
*554 FILLER_13_293
*555 FILLER_13_3
*556 FILLER_13_33
*557 FILLER_13_42
*558 FILLER_13_54
*559 FILLER_13_57
*560 FILLER_13_67
*561 FILLER_13_71
*562 FILLER_13_80
*563 FILLER_13_86
*564 FILLER_13_94
*565 FILLER_14_104
*566 FILLER_14_120
*567 FILLER_14_136
*568 FILLER_14_141
*569 FILLER_14_153
*570 FILLER_14_165
*571 FILLER_14_17
*572 FILLER_14_177
*573 FILLER_14_189
*574 FILLER_14_195
*575 FILLER_14_197
*576 FILLER_14_209
*577 FILLER_14_221
*578 FILLER_14_233
*579 FILLER_14_245
*580 FILLER_14_25
*581 FILLER_14_251
*582 FILLER_14_253
*583 FILLER_14_265
*584 FILLER_14_277
*585 FILLER_14_289
*586 FILLER_14_29
*587 FILLER_14_297
*588 FILLER_14_3
*589 FILLER_14_43
*590 FILLER_14_61
*591 FILLER_14_79
*592 FILLER_14_83
*593 FILLER_14_85
*594 FILLER_14_91
*595 FILLER_15_11
*596 FILLER_15_110
*597 FILLER_15_113
*598 FILLER_15_121
*599 FILLER_15_141
*600 FILLER_15_153
*601 FILLER_15_165
*602 FILLER_15_169
*603 FILLER_15_181
*604 FILLER_15_193
*605 FILLER_15_205
*606 FILLER_15_217
*607 FILLER_15_223
*608 FILLER_15_225
*609 FILLER_15_237
*610 FILLER_15_249
*611 FILLER_15_261
*612 FILLER_15_27
*613 FILLER_15_273
*614 FILLER_15_279
*615 FILLER_15_281
*616 FILLER_15_293
*617 FILLER_15_3
*618 FILLER_15_33
*619 FILLER_15_46
*620 FILLER_15_53
*621 FILLER_15_57
*622 FILLER_15_62
*623 FILLER_15_66
*624 FILLER_15_79
*625 FILLER_15_95
*626 FILLER_16_106
*627 FILLER_16_12
*628 FILLER_16_122
*629 FILLER_16_134
*630 FILLER_16_141
*631 FILLER_16_153
*632 FILLER_16_165
*633 FILLER_16_177
*634 FILLER_16_189
*635 FILLER_16_195
*636 FILLER_16_197
*637 FILLER_16_209
*638 FILLER_16_221
*639 FILLER_16_233
*640 FILLER_16_245
*641 FILLER_16_251
*642 FILLER_16_253
*643 FILLER_16_26
*644 FILLER_16_265
*645 FILLER_16_277
*646 FILLER_16_289
*647 FILLER_16_29
*648 FILLER_16_297
*649 FILLER_16_3
*650 FILLER_16_40
*651 FILLER_16_56
*652 FILLER_16_72
*653 FILLER_16_82
*654 FILLER_16_85
*655 FILLER_16_94
*656 FILLER_17_109
*657 FILLER_17_113
*658 FILLER_17_119
*659 FILLER_17_132
*660 FILLER_17_144
*661 FILLER_17_156
*662 FILLER_17_169
*663 FILLER_17_18
*664 FILLER_17_181
*665 FILLER_17_193
*666 FILLER_17_205
*667 FILLER_17_217
*668 FILLER_17_223
*669 FILLER_17_225
*670 FILLER_17_237
*671 FILLER_17_249
*672 FILLER_17_25
*673 FILLER_17_261
*674 FILLER_17_273
*675 FILLER_17_279
*676 FILLER_17_281
*677 FILLER_17_293
*678 FILLER_17_3
*679 FILLER_17_44
*680 FILLER_17_54
*681 FILLER_17_57
*682 FILLER_17_75
*683 FILLER_17_86
*684 FILLER_17_93
*685 FILLER_18_105
*686 FILLER_18_116
*687 FILLER_18_122
*688 FILLER_18_130
*689 FILLER_18_138
*690 FILLER_18_141
*691 FILLER_18_153
*692 FILLER_18_165
*693 FILLER_18_17
*694 FILLER_18_177
*695 FILLER_18_189
*696 FILLER_18_195
*697 FILLER_18_197
*698 FILLER_18_209
*699 FILLER_18_221
*700 FILLER_18_233
*701 FILLER_18_245
*702 FILLER_18_251
*703 FILLER_18_253
*704 FILLER_18_26
*705 FILLER_18_265
*706 FILLER_18_277
*707 FILLER_18_289
*708 FILLER_18_29
*709 FILLER_18_297
*710 FILLER_18_3
*711 FILLER_18_44
*712 FILLER_18_61
*713 FILLER_18_78
*714 FILLER_18_85
*715 FILLER_19_108
*716 FILLER_19_113
*717 FILLER_19_121
*718 FILLER_19_134
*719 FILLER_19_14
*720 FILLER_19_144
*721 FILLER_19_156
*722 FILLER_19_169
*723 FILLER_19_181
*724 FILLER_19_193
*725 FILLER_19_205
*726 FILLER_19_217
*727 FILLER_19_223
*728 FILLER_19_225
*729 FILLER_19_237
*730 FILLER_19_249
*731 FILLER_19_261
*732 FILLER_19_27
*733 FILLER_19_273
*734 FILLER_19_279
*735 FILLER_19_281
*736 FILLER_19_293
*737 FILLER_19_3
*738 FILLER_19_31
*739 FILLER_19_38
*740 FILLER_19_46
*741 FILLER_19_54
*742 FILLER_19_57
*743 FILLER_19_64
*744 FILLER_19_80
*745 FILLER_19_96
*746 FILLER_1_105
*747 FILLER_1_111
*748 FILLER_1_113
*749 FILLER_1_125
*750 FILLER_1_137
*751 FILLER_1_149
*752 FILLER_1_15
*753 FILLER_1_161
*754 FILLER_1_167
*755 FILLER_1_169
*756 FILLER_1_181
*757 FILLER_1_193
*758 FILLER_1_205
*759 FILLER_1_217
*760 FILLER_1_223
*761 FILLER_1_225
*762 FILLER_1_237
*763 FILLER_1_249
*764 FILLER_1_261
*765 FILLER_1_27
*766 FILLER_1_273
*767 FILLER_1_279
*768 FILLER_1_281
*769 FILLER_1_293
*770 FILLER_1_3
*771 FILLER_1_39
*772 FILLER_1_51
*773 FILLER_1_55
*774 FILLER_1_57
*775 FILLER_1_69
*776 FILLER_1_81
*777 FILLER_1_93
*778 FILLER_20_105
*779 FILLER_20_121
*780 FILLER_20_133
*781 FILLER_20_139
*782 FILLER_20_141
*783 FILLER_20_153
*784 FILLER_20_165
*785 FILLER_20_177
*786 FILLER_20_189
*787 FILLER_20_19
*788 FILLER_20_195
*789 FILLER_20_197
*790 FILLER_20_209
*791 FILLER_20_221
*792 FILLER_20_233
*793 FILLER_20_245
*794 FILLER_20_251
*795 FILLER_20_253
*796 FILLER_20_26
*797 FILLER_20_265
*798 FILLER_20_277
*799 FILLER_20_289
*800 FILLER_20_29
*801 FILLER_20_297
*802 FILLER_20_3
*803 FILLER_20_48
*804 FILLER_20_65
*805 FILLER_20_81
*806 FILLER_20_85
*807 FILLER_21_11
*808 FILLER_21_110
*809 FILLER_21_113
*810 FILLER_21_133
*811 FILLER_21_145
*812 FILLER_21_157
*813 FILLER_21_165
*814 FILLER_21_169
*815 FILLER_21_181
*816 FILLER_21_193
*817 FILLER_21_205
*818 FILLER_21_21
*819 FILLER_21_217
*820 FILLER_21_223
*821 FILLER_21_225
*822 FILLER_21_237
*823 FILLER_21_249
*824 FILLER_21_261
*825 FILLER_21_273
*826 FILLER_21_279
*827 FILLER_21_281
*828 FILLER_21_29
*829 FILLER_21_293
*830 FILLER_21_3
*831 FILLER_21_47
*832 FILLER_21_54
*833 FILLER_21_57
*834 FILLER_21_63
*835 FILLER_21_69
*836 FILLER_21_78
*837 FILLER_21_87
*838 FILLER_21_94
*839 FILLER_22_107
*840 FILLER_22_120
*841 FILLER_22_129
*842 FILLER_22_13
*843 FILLER_22_137
*844 FILLER_22_141
*845 FILLER_22_153
*846 FILLER_22_165
*847 FILLER_22_177
*848 FILLER_22_189
*849 FILLER_22_19
*850 FILLER_22_195
*851 FILLER_22_197
*852 FILLER_22_209
*853 FILLER_22_221
*854 FILLER_22_233
*855 FILLER_22_245
*856 FILLER_22_251
*857 FILLER_22_253
*858 FILLER_22_26
*859 FILLER_22_265
*860 FILLER_22_277
*861 FILLER_22_289
*862 FILLER_22_29
*863 FILLER_22_297
*864 FILLER_22_3
*865 FILLER_22_48
*866 FILLER_22_64
*867 FILLER_22_77
*868 FILLER_22_83
*869 FILLER_22_85
*870 FILLER_22_98
*871 FILLER_23_102
*872 FILLER_23_108
*873 FILLER_23_113
*874 FILLER_23_117
*875 FILLER_23_124
*876 FILLER_23_131
*877 FILLER_23_138
*878 FILLER_23_150
*879 FILLER_23_162
*880 FILLER_23_169
*881 FILLER_23_181
*882 FILLER_23_193
*883 FILLER_23_205
*884 FILLER_23_217
*885 FILLER_23_22
*886 FILLER_23_223
*887 FILLER_23_225
*888 FILLER_23_237
*889 FILLER_23_249
*890 FILLER_23_261
*891 FILLER_23_273
*892 FILLER_23_279
*893 FILLER_23_281
*894 FILLER_23_293
*895 FILLER_23_3
*896 FILLER_23_30
*897 FILLER_23_40
*898 FILLER_23_54
*899 FILLER_23_57
*900 FILLER_23_63
*901 FILLER_23_73
*902 FILLER_23_85
*903 FILLER_23_9
*904 FILLER_23_94
*905 FILLER_24_10
*906 FILLER_24_103
*907 FILLER_24_114
*908 FILLER_24_126
*909 FILLER_24_133
*910 FILLER_24_139
*911 FILLER_24_141
*912 FILLER_24_153
*913 FILLER_24_165
*914 FILLER_24_177
*915 FILLER_24_189
*916 FILLER_24_195
*917 FILLER_24_197
*918 FILLER_24_209
*919 FILLER_24_221
*920 FILLER_24_233
*921 FILLER_24_245
*922 FILLER_24_251
*923 FILLER_24_253
*924 FILLER_24_26
*925 FILLER_24_265
*926 FILLER_24_277
*927 FILLER_24_289
*928 FILLER_24_29
*929 FILLER_24_297
*930 FILLER_24_3
*931 FILLER_24_37
*932 FILLER_24_47
*933 FILLER_24_56
*934 FILLER_24_60
*935 FILLER_24_66
*936 FILLER_24_75
*937 FILLER_24_82
*938 FILLER_24_85
*939 FILLER_24_93
*940 FILLER_24_99
*941 FILLER_25_108
*942 FILLER_25_11
*943 FILLER_25_113
*944 FILLER_25_123
*945 FILLER_25_135
*946 FILLER_25_147
*947 FILLER_25_159
*948 FILLER_25_167
*949 FILLER_25_169
*950 FILLER_25_181
*951 FILLER_25_193
*952 FILLER_25_205
*953 FILLER_25_217
*954 FILLER_25_22
*955 FILLER_25_223
*956 FILLER_25_225
*957 FILLER_25_237
*958 FILLER_25_249
*959 FILLER_25_261
*960 FILLER_25_273
*961 FILLER_25_279
*962 FILLER_25_281
*963 FILLER_25_293
*964 FILLER_25_3
*965 FILLER_25_31
*966 FILLER_25_42
*967 FILLER_25_54
*968 FILLER_25_57
*969 FILLER_25_63
*970 FILLER_25_74
*971 FILLER_25_82
*972 FILLER_25_88
*973 FILLER_25_97
*974 FILLER_26_106
*975 FILLER_26_114
*976 FILLER_26_120
*977 FILLER_26_131
*978 FILLER_26_139
*979 FILLER_26_141
*980 FILLER_26_153
*981 FILLER_26_165
*982 FILLER_26_177
*983 FILLER_26_189
*984 FILLER_26_195
*985 FILLER_26_197
*986 FILLER_26_209
*987 FILLER_26_221
*988 FILLER_26_233
*989 FILLER_26_24
*990 FILLER_26_245
*991 FILLER_26_251
*992 FILLER_26_253
*993 FILLER_26_265
*994 FILLER_26_277
*995 FILLER_26_289
*996 FILLER_26_29
*997 FILLER_26_297
*998 FILLER_26_3
*999 FILLER_26_40
*1000 FILLER_26_47
*1001 FILLER_26_58
*1002 FILLER_26_73
*1003 FILLER_26_8
*1004 FILLER_26_80
*1005 FILLER_26_85
*1006 FILLER_26_92
*1007 FILLER_26_99
*1008 FILLER_27_106
*1009 FILLER_27_113
*1010 FILLER_27_122
*1011 FILLER_27_131
*1012 FILLER_27_140
*1013 FILLER_27_152
*1014 FILLER_27_164
*1015 FILLER_27_169
*1016 FILLER_27_181
*1017 FILLER_27_193
*1018 FILLER_27_205
*1019 FILLER_27_217
*1020 FILLER_27_223
*1021 FILLER_27_225
*1022 FILLER_27_23
*1023 FILLER_27_237
*1024 FILLER_27_249
*1025 FILLER_27_261
*1026 FILLER_27_273
*1027 FILLER_27_279
*1028 FILLER_27_281
*1029 FILLER_27_293
*1030 FILLER_27_3
*1031 FILLER_27_31
*1032 FILLER_27_44
*1033 FILLER_27_53
*1034 FILLER_27_57
*1035 FILLER_27_64
*1036 FILLER_27_71
*1037 FILLER_27_82
*1038 FILLER_27_93
*1039 FILLER_27_99
*1040 FILLER_28_109
*1041 FILLER_28_116
*1042 FILLER_28_126
*1043 FILLER_28_138
*1044 FILLER_28_141
*1045 FILLER_28_153
*1046 FILLER_28_165
*1047 FILLER_28_177
*1048 FILLER_28_189
*1049 FILLER_28_195
*1050 FILLER_28_197
*1051 FILLER_28_20
*1052 FILLER_28_209
*1053 FILLER_28_221
*1054 FILLER_28_233
*1055 FILLER_28_245
*1056 FILLER_28_251
*1057 FILLER_28_253
*1058 FILLER_28_265
*1059 FILLER_28_277
*1060 FILLER_28_289
*1061 FILLER_28_29
*1062 FILLER_28_297
*1063 FILLER_28_3
*1064 FILLER_28_37
*1065 FILLER_28_45
*1066 FILLER_28_52
*1067 FILLER_28_69
*1068 FILLER_28_7
*1069 FILLER_28_73
*1070 FILLER_28_82
*1071 FILLER_28_85
*1072 FILLER_28_90
*1073 FILLER_28_96
*1074 FILLER_29_108
*1075 FILLER_29_113
*1076 FILLER_29_123
*1077 FILLER_29_135
*1078 FILLER_29_147
*1079 FILLER_29_159
*1080 FILLER_29_167
*1081 FILLER_29_169
*1082 FILLER_29_17
*1083 FILLER_29_181
*1084 FILLER_29_193
*1085 FILLER_29_205
*1086 FILLER_29_217
*1087 FILLER_29_223
*1088 FILLER_29_225
*1089 FILLER_29_237
*1090 FILLER_29_249
*1091 FILLER_29_261
*1092 FILLER_29_273
*1093 FILLER_29_279
*1094 FILLER_29_281
*1095 FILLER_29_29
*1096 FILLER_29_293
*1097 FILLER_29_3
*1098 FILLER_29_33
*1099 FILLER_29_40
*1100 FILLER_29_50
*1101 FILLER_29_57
*1102 FILLER_29_71
*1103 FILLER_29_75
*1104 FILLER_29_88
*1105 FILLER_29_9
*1106 FILLER_29_98
*1107 FILLER_2_109
*1108 FILLER_2_121
*1109 FILLER_2_133
*1110 FILLER_2_139
*1111 FILLER_2_141
*1112 FILLER_2_15
*1113 FILLER_2_153
*1114 FILLER_2_165
*1115 FILLER_2_177
*1116 FILLER_2_189
*1117 FILLER_2_195
*1118 FILLER_2_197
*1119 FILLER_2_209
*1120 FILLER_2_221
*1121 FILLER_2_233
*1122 FILLER_2_245
*1123 FILLER_2_251
*1124 FILLER_2_253
*1125 FILLER_2_265
*1126 FILLER_2_27
*1127 FILLER_2_277
*1128 FILLER_2_289
*1129 FILLER_2_29
*1130 FILLER_2_297
*1131 FILLER_2_3
*1132 FILLER_2_41
*1133 FILLER_2_53
*1134 FILLER_2_65
*1135 FILLER_2_77
*1136 FILLER_2_83
*1137 FILLER_2_85
*1138 FILLER_2_97
*1139 FILLER_30_107
*1140 FILLER_30_117
*1141 FILLER_30_127
*1142 FILLER_30_134
*1143 FILLER_30_141
*1144 FILLER_30_153
*1145 FILLER_30_165
*1146 FILLER_30_177
*1147 FILLER_30_189
*1148 FILLER_30_195
*1149 FILLER_30_197
*1150 FILLER_30_209
*1151 FILLER_30_21
*1152 FILLER_30_221
*1153 FILLER_30_233
*1154 FILLER_30_245
*1155 FILLER_30_251
*1156 FILLER_30_253
*1157 FILLER_30_265
*1158 FILLER_30_27
*1159 FILLER_30_277
*1160 FILLER_30_289
*1161 FILLER_30_29
*1162 FILLER_30_297
*1163 FILLER_30_3
*1164 FILLER_30_33
*1165 FILLER_30_40
*1166 FILLER_30_48
*1167 FILLER_30_56
*1168 FILLER_30_64
*1169 FILLER_30_77
*1170 FILLER_30_83
*1171 FILLER_30_85
*1172 FILLER_30_99
*1173 FILLER_31_100
*1174 FILLER_31_107
*1175 FILLER_31_11
*1176 FILLER_31_111
*1177 FILLER_31_113
*1178 FILLER_31_124
*1179 FILLER_31_131
*1180 FILLER_31_143
*1181 FILLER_31_155
*1182 FILLER_31_167
*1183 FILLER_31_169
*1184 FILLER_31_181
*1185 FILLER_31_19
*1186 FILLER_31_193
*1187 FILLER_31_205
*1188 FILLER_31_217
*1189 FILLER_31_223
*1190 FILLER_31_225
*1191 FILLER_31_237
*1192 FILLER_31_249
*1193 FILLER_31_261
*1194 FILLER_31_273
*1195 FILLER_31_279
*1196 FILLER_31_281
*1197 FILLER_31_293
*1198 FILLER_31_3
*1199 FILLER_31_36
*1200 FILLER_31_47
*1201 FILLER_31_54
*1202 FILLER_31_57
*1203 FILLER_31_63
*1204 FILLER_31_70
*1205 FILLER_31_78
*1206 FILLER_31_86
*1207 FILLER_31_94
*1208 FILLER_32_112
*1209 FILLER_32_12
*1210 FILLER_32_124
*1211 FILLER_32_136
*1212 FILLER_32_141
*1213 FILLER_32_153
*1214 FILLER_32_165
*1215 FILLER_32_177
*1216 FILLER_32_189
*1217 FILLER_32_195
*1218 FILLER_32_197
*1219 FILLER_32_209
*1220 FILLER_32_221
*1221 FILLER_32_23
*1222 FILLER_32_233
*1223 FILLER_32_245
*1224 FILLER_32_251
*1225 FILLER_32_253
*1226 FILLER_32_265
*1227 FILLER_32_27
*1228 FILLER_32_277
*1229 FILLER_32_289
*1230 FILLER_32_29
*1231 FILLER_32_297
*1232 FILLER_32_3
*1233 FILLER_32_34
*1234 FILLER_32_42
*1235 FILLER_32_46
*1236 FILLER_32_51
*1237 FILLER_32_55
*1238 FILLER_32_61
*1239 FILLER_32_7
*1240 FILLER_32_71
*1241 FILLER_32_77
*1242 FILLER_32_81
*1243 FILLER_32_85
*1244 FILLER_32_89
*1245 FILLER_32_96
*1246 FILLER_33_103
*1247 FILLER_33_110
*1248 FILLER_33_113
*1249 FILLER_33_122
*1250 FILLER_33_134
*1251 FILLER_33_146
*1252 FILLER_33_158
*1253 FILLER_33_166
*1254 FILLER_33_169
*1255 FILLER_33_18
*1256 FILLER_33_181
*1257 FILLER_33_193
*1258 FILLER_33_205
*1259 FILLER_33_217
*1260 FILLER_33_223
*1261 FILLER_33_225
*1262 FILLER_33_237
*1263 FILLER_33_249
*1264 FILLER_33_261
*1265 FILLER_33_273
*1266 FILLER_33_279
*1267 FILLER_33_28
*1268 FILLER_33_281
*1269 FILLER_33_293
*1270 FILLER_33_3
*1271 FILLER_33_35
*1272 FILLER_33_44
*1273 FILLER_33_54
*1274 FILLER_33_57
*1275 FILLER_33_61
*1276 FILLER_33_69
*1277 FILLER_33_80
*1278 FILLER_33_88
*1279 FILLER_34_102
*1280 FILLER_34_11
*1281 FILLER_34_114
*1282 FILLER_34_123
*1283 FILLER_34_130
*1284 FILLER_34_138
*1285 FILLER_34_141
*1286 FILLER_34_153
*1287 FILLER_34_165
*1288 FILLER_34_177
*1289 FILLER_34_189
*1290 FILLER_34_195
*1291 FILLER_34_197
*1292 FILLER_34_209
*1293 FILLER_34_22
*1294 FILLER_34_221
*1295 FILLER_34_233
*1296 FILLER_34_245
*1297 FILLER_34_251
*1298 FILLER_34_253
*1299 FILLER_34_265
*1300 FILLER_34_277
*1301 FILLER_34_289
*1302 FILLER_34_29
*1303 FILLER_34_297
*1304 FILLER_34_3
*1305 FILLER_34_34
*1306 FILLER_34_45
*1307 FILLER_34_54
*1308 FILLER_34_65
*1309 FILLER_34_7
*1310 FILLER_34_77
*1311 FILLER_34_83
*1312 FILLER_34_85
*1313 FILLER_34_90
*1314 FILLER_34_94
*1315 FILLER_35_102
*1316 FILLER_35_110
*1317 FILLER_35_113
*1318 FILLER_35_122
*1319 FILLER_35_134
*1320 FILLER_35_146
*1321 FILLER_35_158
*1322 FILLER_35_166
*1323 FILLER_35_169
*1324 FILLER_35_18
*1325 FILLER_35_181
*1326 FILLER_35_193
*1327 FILLER_35_205
*1328 FILLER_35_217
*1329 FILLER_35_223
*1330 FILLER_35_225
*1331 FILLER_35_237
*1332 FILLER_35_249
*1333 FILLER_35_261
*1334 FILLER_35_273
*1335 FILLER_35_279
*1336 FILLER_35_281
*1337 FILLER_35_293
*1338 FILLER_35_3
*1339 FILLER_35_34
*1340 FILLER_35_43
*1341 FILLER_35_53
*1342 FILLER_35_57
*1343 FILLER_35_62
*1344 FILLER_35_70
*1345 FILLER_35_79
*1346 FILLER_35_94
*1347 FILLER_36_111
*1348 FILLER_36_119
*1349 FILLER_36_131
*1350 FILLER_36_139
*1351 FILLER_36_141
*1352 FILLER_36_153
*1353 FILLER_36_165
*1354 FILLER_36_177
*1355 FILLER_36_189
*1356 FILLER_36_195
*1357 FILLER_36_197
*1358 FILLER_36_20
*1359 FILLER_36_209
*1360 FILLER_36_221
*1361 FILLER_36_233
*1362 FILLER_36_245
*1363 FILLER_36_251
*1364 FILLER_36_253
*1365 FILLER_36_265
*1366 FILLER_36_277
*1367 FILLER_36_289
*1368 FILLER_36_29
*1369 FILLER_36_297
*1370 FILLER_36_3
*1371 FILLER_36_34
*1372 FILLER_36_38
*1373 FILLER_36_51
*1374 FILLER_36_60
*1375 FILLER_36_68
*1376 FILLER_36_72
*1377 FILLER_36_79
*1378 FILLER_36_83
*1379 FILLER_36_85
*1380 FILLER_36_89
*1381 FILLER_36_99
*1382 FILLER_37_105
*1383 FILLER_37_111
*1384 FILLER_37_113
*1385 FILLER_37_125
*1386 FILLER_37_137
*1387 FILLER_37_149
*1388 FILLER_37_161
*1389 FILLER_37_167
*1390 FILLER_37_169
*1391 FILLER_37_18
*1392 FILLER_37_181
*1393 FILLER_37_193
*1394 FILLER_37_205
*1395 FILLER_37_217
*1396 FILLER_37_223
*1397 FILLER_37_225
*1398 FILLER_37_237
*1399 FILLER_37_249
*1400 FILLER_37_261
*1401 FILLER_37_27
*1402 FILLER_37_273
*1403 FILLER_37_279
*1404 FILLER_37_281
*1405 FILLER_37_293
*1406 FILLER_37_3
*1407 FILLER_37_43
*1408 FILLER_37_54
*1409 FILLER_37_57
*1410 FILLER_37_68
*1411 FILLER_37_72
*1412 FILLER_37_77
*1413 FILLER_37_81
*1414 FILLER_37_89
*1415 FILLER_37_97
*1416 FILLER_38_102
*1417 FILLER_38_110
*1418 FILLER_38_115
*1419 FILLER_38_127
*1420 FILLER_38_139
*1421 FILLER_38_141
*1422 FILLER_38_153
*1423 FILLER_38_165
*1424 FILLER_38_177
*1425 FILLER_38_189
*1426 FILLER_38_195
*1427 FILLER_38_197
*1428 FILLER_38_209
*1429 FILLER_38_22
*1430 FILLER_38_221
*1431 FILLER_38_233
*1432 FILLER_38_245
*1433 FILLER_38_251
*1434 FILLER_38_253
*1435 FILLER_38_265
*1436 FILLER_38_277
*1437 FILLER_38_289
*1438 FILLER_38_29
*1439 FILLER_38_297
*1440 FILLER_38_3
*1441 FILLER_38_36
*1442 FILLER_38_48
*1443 FILLER_38_52
*1444 FILLER_38_58
*1445 FILLER_38_65
*1446 FILLER_38_69
*1447 FILLER_38_73
*1448 FILLER_38_82
*1449 FILLER_38_85
*1450 FILLER_38_9
*1451 FILLER_38_90
*1452 FILLER_39_101
*1453 FILLER_39_108
*1454 FILLER_39_113
*1455 FILLER_39_125
*1456 FILLER_39_137
*1457 FILLER_39_149
*1458 FILLER_39_16
*1459 FILLER_39_161
*1460 FILLER_39_167
*1461 FILLER_39_169
*1462 FILLER_39_181
*1463 FILLER_39_193
*1464 FILLER_39_205
*1465 FILLER_39_217
*1466 FILLER_39_223
*1467 FILLER_39_225
*1468 FILLER_39_23
*1469 FILLER_39_237
*1470 FILLER_39_249
*1471 FILLER_39_261
*1472 FILLER_39_273
*1473 FILLER_39_279
*1474 FILLER_39_281
*1475 FILLER_39_293
*1476 FILLER_39_3
*1477 FILLER_39_39
*1478 FILLER_39_50
*1479 FILLER_39_57
*1480 FILLER_39_64
*1481 FILLER_39_74
*1482 FILLER_39_85
*1483 FILLER_39_9
*1484 FILLER_39_93
*1485 FILLER_3_108
*1486 FILLER_3_113
*1487 FILLER_3_125
*1488 FILLER_3_137
*1489 FILLER_3_149
*1490 FILLER_3_161
*1491 FILLER_3_167
*1492 FILLER_3_169
*1493 FILLER_3_181
*1494 FILLER_3_193
*1495 FILLER_3_20
*1496 FILLER_3_205
*1497 FILLER_3_217
*1498 FILLER_3_223
*1499 FILLER_3_225
*1500 FILLER_3_237
*1501 FILLER_3_249
*1502 FILLER_3_261
*1503 FILLER_3_273
*1504 FILLER_3_279
*1505 FILLER_3_281
*1506 FILLER_3_293
*1507 FILLER_3_3
*1508 FILLER_3_32
*1509 FILLER_3_44
*1510 FILLER_3_57
*1511 FILLER_3_66
*1512 FILLER_3_8
*1513 FILLER_3_80
*1514 FILLER_3_88
*1515 FILLER_3_96
*1516 FILLER_40_104
*1517 FILLER_40_111
*1518 FILLER_40_118
*1519 FILLER_40_130
*1520 FILLER_40_138
*1521 FILLER_40_141
*1522 FILLER_40_153
*1523 FILLER_40_165
*1524 FILLER_40_177
*1525 FILLER_40_18
*1526 FILLER_40_189
*1527 FILLER_40_195
*1528 FILLER_40_197
*1529 FILLER_40_209
*1530 FILLER_40_221
*1531 FILLER_40_233
*1532 FILLER_40_245
*1533 FILLER_40_251
*1534 FILLER_40_253
*1535 FILLER_40_26
*1536 FILLER_40_265
*1537 FILLER_40_277
*1538 FILLER_40_289
*1539 FILLER_40_29
*1540 FILLER_40_297
*1541 FILLER_40_3
*1542 FILLER_40_35
*1543 FILLER_40_43
*1544 FILLER_40_48
*1545 FILLER_40_55
*1546 FILLER_40_68
*1547 FILLER_40_74
*1548 FILLER_40_80
*1549 FILLER_40_85
*1550 FILLER_40_90
*1551 FILLER_40_94
*1552 FILLER_41_100
*1553 FILLER_41_107
*1554 FILLER_41_111
*1555 FILLER_41_113
*1556 FILLER_41_125
*1557 FILLER_41_137
*1558 FILLER_41_149
*1559 FILLER_41_161
*1560 FILLER_41_167
*1561 FILLER_41_169
*1562 FILLER_41_18
*1563 FILLER_41_181
*1564 FILLER_41_193
*1565 FILLER_41_205
*1566 FILLER_41_217
*1567 FILLER_41_223
*1568 FILLER_41_225
*1569 FILLER_41_237
*1570 FILLER_41_249
*1571 FILLER_41_261
*1572 FILLER_41_273
*1573 FILLER_41_279
*1574 FILLER_41_281
*1575 FILLER_41_293
*1576 FILLER_41_3
*1577 FILLER_41_31
*1578 FILLER_41_39
*1579 FILLER_41_52
*1580 FILLER_41_57
*1581 FILLER_41_67
*1582 FILLER_41_77
*1583 FILLER_41_81
*1584 FILLER_41_85
*1585 FILLER_41_93
*1586 FILLER_42_100
*1587 FILLER_42_107
*1588 FILLER_42_11
*1589 FILLER_42_115
*1590 FILLER_42_123
*1591 FILLER_42_135
*1592 FILLER_42_139
*1593 FILLER_42_141
*1594 FILLER_42_15
*1595 FILLER_42_153
*1596 FILLER_42_165
*1597 FILLER_42_177
*1598 FILLER_42_189
*1599 FILLER_42_195
*1600 FILLER_42_197
*1601 FILLER_42_209
*1602 FILLER_42_21
*1603 FILLER_42_221
*1604 FILLER_42_233
*1605 FILLER_42_245
*1606 FILLER_42_251
*1607 FILLER_42_253
*1608 FILLER_42_26
*1609 FILLER_42_265
*1610 FILLER_42_277
*1611 FILLER_42_289
*1612 FILLER_42_29
*1613 FILLER_42_297
*1614 FILLER_42_3
*1615 FILLER_42_38
*1616 FILLER_42_45
*1617 FILLER_42_51
*1618 FILLER_42_55
*1619 FILLER_42_64
*1620 FILLER_42_71
*1621 FILLER_42_82
*1622 FILLER_42_85
*1623 FILLER_42_92
*1624 FILLER_43_106
*1625 FILLER_43_113
*1626 FILLER_43_118
*1627 FILLER_43_130
*1628 FILLER_43_142
*1629 FILLER_43_154
*1630 FILLER_43_166
*1631 FILLER_43_169
*1632 FILLER_43_18
*1633 FILLER_43_181
*1634 FILLER_43_193
*1635 FILLER_43_205
*1636 FILLER_43_217
*1637 FILLER_43_223
*1638 FILLER_43_225
*1639 FILLER_43_237
*1640 FILLER_43_249
*1641 FILLER_43_261
*1642 FILLER_43_273
*1643 FILLER_43_279
*1644 FILLER_43_281
*1645 FILLER_43_293
*1646 FILLER_43_3
*1647 FILLER_43_34
*1648 FILLER_43_44
*1649 FILLER_43_51
*1650 FILLER_43_55
*1651 FILLER_43_57
*1652 FILLER_43_63
*1653 FILLER_43_70
*1654 FILLER_43_79
*1655 FILLER_43_89
*1656 FILLER_43_97
*1657 FILLER_44_102