*SPEF "ieee 1481-1999"
*DESIGN "hex_sr"
*DATE "11:11:11 Fri 11 11, 1111"
*VENDOR "OpenRCX"
*PROGRAM "Parallel Extraction"
*VERSION "1.0"
*DESIGN_FLOW "NAME_SCOPE LOCAL" "PIN_CAP NONE"
*DIVIDER /
*DELIMITER :
*BUS_DELIMITER []
*T_UNIT 1 NS
*C_UNIT 1 PF
*R_UNIT 1 OHM
*L_UNIT 1 HENRY

*NAME_MAP
*1 io_in[0]
*2 io_in[1]
*3 io_in[2]
*4 io_in[3]
*5 io_in[4]
*6 io_in[5]
*7 io_in[6]
*8 io_in[7]
*9 net8
*10 net9
*11 io_out[2]
*12 io_out[3]
*13 io_out[4]
*14 io_out[5]
*15 io_out[6]
*16 io_out[7]
*19 _000_
*20 _001_
*21 _002_
*22 _003_
*23 _004_
*24 _005_
*25 _006_
*26 _007_
*27 _008_
*28 _009_
*29 _010_
*30 _011_
*31 clknet_0_io_in[0]
*32 clknet_1_0__leaf_io_in[0]
*33 clknet_1_1__leaf_io_in[0]
*34 clknet_leaf_0_io_in[0]
*35 clknet_leaf_10_io_in[0]
*36 clknet_leaf_11_io_in[0]
*37 clknet_leaf_1_io_in[0]
*38 clknet_leaf_2_io_in[0]
*39 clknet_leaf_3_io_in[0]
*40 clknet_leaf_4_io_in[0]
*41 clknet_leaf_5_io_in[0]
*42 clknet_leaf_6_io_in[0]
*43 clknet_leaf_7_io_in[0]
*44 clknet_leaf_8_io_in[0]
*45 clknet_leaf_9_io_in[0]
*46 genblk1\[0\]\.sr0\.data_out
*47 genblk1\[0\]\.sr0\.shift_reg\[0\]
*48 genblk1\[0\]\.sr0\.shift_reg\[10\]
*49 genblk1\[0\]\.sr0\.shift_reg\[11\]
*50 genblk1\[0\]\.sr0\.shift_reg\[12\]
*51 genblk1\[0\]\.sr0\.shift_reg\[13\]
*52 genblk1\[0\]\.sr0\.shift_reg\[14\]
*53 genblk1\[0\]\.sr0\.shift_reg\[15\]
*54 genblk1\[0\]\.sr0\.shift_reg\[16\]
*55 genblk1\[0\]\.sr0\.shift_reg\[17\]
*56 genblk1\[0\]\.sr0\.shift_reg\[18\]
*57 genblk1\[0\]\.sr0\.shift_reg\[19\]
*58 genblk1\[0\]\.sr0\.shift_reg\[1\]
*59 genblk1\[0\]\.sr0\.shift_reg\[20\]
*60 genblk1\[0\]\.sr0\.shift_reg\[21\]
*61 genblk1\[0\]\.sr0\.shift_reg\[22\]
*62 genblk1\[0\]\.sr0\.shift_reg\[23\]
*63 genblk1\[0\]\.sr0\.shift_reg\[24\]
*64 genblk1\[0\]\.sr0\.shift_reg\[25\]
*65 genblk1\[0\]\.sr0\.shift_reg\[26\]
*66 genblk1\[0\]\.sr0\.shift_reg\[27\]
*67 genblk1\[0\]\.sr0\.shift_reg\[28\]
*68 genblk1\[0\]\.sr0\.shift_reg\[29\]
*69 genblk1\[0\]\.sr0\.shift_reg\[2\]
*70 genblk1\[0\]\.sr0\.shift_reg\[30\]
*71 genblk1\[0\]\.sr0\.shift_reg\[31\]
*72 genblk1\[0\]\.sr0\.shift_reg\[32\]
*73 genblk1\[0\]\.sr0\.shift_reg\[33\]
*74 genblk1\[0\]\.sr0\.shift_reg\[34\]
*75 genblk1\[0\]\.sr0\.shift_reg\[35\]
*76 genblk1\[0\]\.sr0\.shift_reg\[36\]
*77 genblk1\[0\]\.sr0\.shift_reg\[37\]
*78 genblk1\[0\]\.sr0\.shift_reg\[38\]
*79 genblk1\[0\]\.sr0\.shift_reg\[3\]
*80 genblk1\[0\]\.sr0\.shift_reg\[4\]
*81 genblk1\[0\]\.sr0\.shift_reg\[5\]
*82 genblk1\[0\]\.sr0\.shift_reg\[6\]
*83 genblk1\[0\]\.sr0\.shift_reg\[7\]
*84 genblk1\[0\]\.sr0\.shift_reg\[8\]
*85 genblk1\[0\]\.sr0\.shift_reg\[9\]
*86 genblk1\[1\]\.sr0\.data_out
*87 genblk1\[1\]\.sr0\.shift_reg\[0\]
*88 genblk1\[1\]\.sr0\.shift_reg\[10\]
*89 genblk1\[1\]\.sr0\.shift_reg\[11\]
*90 genblk1\[1\]\.sr0\.shift_reg\[12\]
*91 genblk1\[1\]\.sr0\.shift_reg\[13\]
*92 genblk1\[1\]\.sr0\.shift_reg\[14\]
*93 genblk1\[1\]\.sr0\.shift_reg\[15\]
*94 genblk1\[1\]\.sr0\.shift_reg\[16\]
*95 genblk1\[1\]\.sr0\.shift_reg\[17\]
*96 genblk1\[1\]\.sr0\.shift_reg\[18\]
*97 genblk1\[1\]\.sr0\.shift_reg\[19\]
*98 genblk1\[1\]\.sr0\.shift_reg\[1\]
*99 genblk1\[1\]\.sr0\.shift_reg\[20\]
*100 genblk1\[1\]\.sr0\.shift_reg\[21\]
*101 genblk1\[1\]\.sr0\.shift_reg\[22\]
*102 genblk1\[1\]\.sr0\.shift_reg\[23\]
*103 genblk1\[1\]\.sr0\.shift_reg\[24\]
*104 genblk1\[1\]\.sr0\.shift_reg\[25\]
*105 genblk1\[1\]\.sr0\.shift_reg\[26\]
*106 genblk1\[1\]\.sr0\.shift_reg\[27\]
*107 genblk1\[1\]\.sr0\.shift_reg\[28\]
*108 genblk1\[1\]\.sr0\.shift_reg\[29\]
*109 genblk1\[1\]\.sr0\.shift_reg\[2\]
*110 genblk1\[1\]\.sr0\.shift_reg\[30\]
*111 genblk1\[1\]\.sr0\.shift_reg\[31\]
*112 genblk1\[1\]\.sr0\.shift_reg\[32\]
*113 genblk1\[1\]\.sr0\.shift_reg\[33\]
*114 genblk1\[1\]\.sr0\.shift_reg\[34\]
*115 genblk1\[1\]\.sr0\.shift_reg\[35\]
*116 genblk1\[1\]\.sr0\.shift_reg\[36\]
*117 genblk1\[1\]\.sr0\.shift_reg\[37\]
*118 genblk1\[1\]\.sr0\.shift_reg\[38\]
*119 genblk1\[1\]\.sr0\.shift_reg\[3\]
*120 genblk1\[1\]\.sr0\.shift_reg\[4\]
*121 genblk1\[1\]\.sr0\.shift_reg\[5\]
*122 genblk1\[1\]\.sr0\.shift_reg\[6\]
*123 genblk1\[1\]\.sr0\.shift_reg\[7\]
*124 genblk1\[1\]\.sr0\.shift_reg\[8\]
*125 genblk1\[1\]\.sr0\.shift_reg\[9\]
*126 genblk1\[2\]\.sr0\.data_out
*127 genblk1\[2\]\.sr0\.shift_reg\[0\]
*128 genblk1\[2\]\.sr0\.shift_reg\[10\]
*129 genblk1\[2\]\.sr0\.shift_reg\[11\]
*130 genblk1\[2\]\.sr0\.shift_reg\[12\]
*131 genblk1\[2\]\.sr0\.shift_reg\[13\]
*132 genblk1\[2\]\.sr0\.shift_reg\[14\]
*133 genblk1\[2\]\.sr0\.shift_reg\[15\]
*134 genblk1\[2\]\.sr0\.shift_reg\[16\]
*135 genblk1\[2\]\.sr0\.shift_reg\[17\]
*136 genblk1\[2\]\.sr0\.shift_reg\[18\]
*137 genblk1\[2\]\.sr0\.shift_reg\[19\]
*138 genblk1\[2\]\.sr0\.shift_reg\[1\]
*139 genblk1\[2\]\.sr0\.shift_reg\[20\]
*140 genblk1\[2\]\.sr0\.shift_reg\[21\]
*141 genblk1\[2\]\.sr0\.shift_reg\[22\]
*142 genblk1\[2\]\.sr0\.shift_reg\[23\]
*143 genblk1\[2\]\.sr0\.shift_reg\[24\]
*144 genblk1\[2\]\.sr0\.shift_reg\[25\]
*145 genblk1\[2\]\.sr0\.shift_reg\[26\]
*146 genblk1\[2\]\.sr0\.shift_reg\[27\]
*147 genblk1\[2\]\.sr0\.shift_reg\[28\]
*148 genblk1\[2\]\.sr0\.shift_reg\[29\]
*149 genblk1\[2\]\.sr0\.shift_reg\[2\]
*150 genblk1\[2\]\.sr0\.shift_reg\[30\]
*151 genblk1\[2\]\.sr0\.shift_reg\[31\]
*152 genblk1\[2\]\.sr0\.shift_reg\[32\]
*153 genblk1\[2\]\.sr0\.shift_reg\[33\]
*154 genblk1\[2\]\.sr0\.shift_reg\[34\]
*155 genblk1\[2\]\.sr0\.shift_reg\[35\]
*156 genblk1\[2\]\.sr0\.shift_reg\[36\]
*157 genblk1\[2\]\.sr0\.shift_reg\[37\]
*158 genblk1\[2\]\.sr0\.shift_reg\[38\]
*159 genblk1\[2\]\.sr0\.shift_reg\[3\]
*160 genblk1\[2\]\.sr0\.shift_reg\[4\]
*161 genblk1\[2\]\.sr0\.shift_reg\[5\]
*162 genblk1\[2\]\.sr0\.shift_reg\[6\]
*163 genblk1\[2\]\.sr0\.shift_reg\[7\]
*164 genblk1\[2\]\.sr0\.shift_reg\[8\]
*165 genblk1\[2\]\.sr0\.shift_reg\[9\]
*166 genblk1\[3\]\.sr0\.data_out
*167 genblk1\[3\]\.sr0\.shift_reg\[0\]
*168 genblk1\[3\]\.sr0\.shift_reg\[10\]
*169 genblk1\[3\]\.sr0\.shift_reg\[11\]
*170 genblk1\[3\]\.sr0\.shift_reg\[12\]
*171 genblk1\[3\]\.sr0\.shift_reg\[13\]
*172 genblk1\[3\]\.sr0\.shift_reg\[14\]
*173 genblk1\[3\]\.sr0\.shift_reg\[15\]
*174 genblk1\[3\]\.sr0\.shift_reg\[16\]
*175 genblk1\[3\]\.sr0\.shift_reg\[17\]
*176 genblk1\[3\]\.sr0\.shift_reg\[18\]
*177 genblk1\[3\]\.sr0\.shift_reg\[19\]
*178 genblk1\[3\]\.sr0\.shift_reg\[1\]
*179 genblk1\[3\]\.sr0\.shift_reg\[20\]
*180 genblk1\[3\]\.sr0\.shift_reg\[21\]
*181 genblk1\[3\]\.sr0\.shift_reg\[22\]
*182 genblk1\[3\]\.sr0\.shift_reg\[23\]
*183 genblk1\[3\]\.sr0\.shift_reg\[24\]
*184 genblk1\[3\]\.sr0\.shift_reg\[25\]
*185 genblk1\[3\]\.sr0\.shift_reg\[26\]
*186 genblk1\[3\]\.sr0\.shift_reg\[27\]
*187 genblk1\[3\]\.sr0\.shift_reg\[28\]
*188 genblk1\[3\]\.sr0\.shift_reg\[29\]
*189 genblk1\[3\]\.sr0\.shift_reg\[2\]
*190 genblk1\[3\]\.sr0\.shift_reg\[30\]
*191 genblk1\[3\]\.sr0\.shift_reg\[31\]
*192 genblk1\[3\]\.sr0\.shift_reg\[32\]
*193 genblk1\[3\]\.sr0\.shift_reg\[33\]
*194 genblk1\[3\]\.sr0\.shift_reg\[34\]
*195 genblk1\[3\]\.sr0\.shift_reg\[35\]
*196 genblk1\[3\]\.sr0\.shift_reg\[36\]
*197 genblk1\[3\]\.sr0\.shift_reg\[37\]
*198 genblk1\[3\]\.sr0\.shift_reg\[38\]
*199 genblk1\[3\]\.sr0\.shift_reg\[3\]
*200 genblk1\[3\]\.sr0\.shift_reg\[4\]
*201 genblk1\[3\]\.sr0\.shift_reg\[5\]
*202 genblk1\[3\]\.sr0\.shift_reg\[6\]
*203 genblk1\[3\]\.sr0\.shift_reg\[7\]
*204 genblk1\[3\]\.sr0\.shift_reg\[8\]
*205 genblk1\[3\]\.sr0\.shift_reg\[9\]
*206 genblk1\[4\]\.sr0\.data_out
*207 genblk1\[4\]\.sr0\.shift_reg\[0\]
*208 genblk1\[4\]\.sr0\.shift_reg\[10\]
*209 genblk1\[4\]\.sr0\.shift_reg\[11\]
*210 genblk1\[4\]\.sr0\.shift_reg\[12\]
*211 genblk1\[4\]\.sr0\.shift_reg\[13\]
*212 genblk1\[4\]\.sr0\.shift_reg\[14\]
*213 genblk1\[4\]\.sr0\.shift_reg\[15\]
*214 genblk1\[4\]\.sr0\.shift_reg\[16\]
*215 genblk1\[4\]\.sr0\.shift_reg\[17\]
*216 genblk1\[4\]\.sr0\.shift_reg\[18\]
*217 genblk1\[4\]\.sr0\.shift_reg\[19\]
*218 genblk1\[4\]\.sr0\.shift_reg\[1\]
*219 genblk1\[4\]\.sr0\.shift_reg\[20\]
*220 genblk1\[4\]\.sr0\.shift_reg\[21\]
*221 genblk1\[4\]\.sr0\.shift_reg\[22\]
*222 genblk1\[4\]\.sr0\.shift_reg\[23\]
*223 genblk1\[4\]\.sr0\.shift_reg\[24\]
*224 genblk1\[4\]\.sr0\.shift_reg\[25\]
*225 genblk1\[4\]\.sr0\.shift_reg\[26\]
*226 genblk1\[4\]\.sr0\.shift_reg\[27\]
*227 genblk1\[4\]\.sr0\.shift_reg\[28\]
*228 genblk1\[4\]\.sr0\.shift_reg\[29\]
*229 genblk1\[4\]\.sr0\.shift_reg\[2\]
*230 genblk1\[4\]\.sr0\.shift_reg\[30\]
*231 genblk1\[4\]\.sr0\.shift_reg\[31\]
*232 genblk1\[4\]\.sr0\.shift_reg\[32\]
*233 genblk1\[4\]\.sr0\.shift_reg\[33\]
*234 genblk1\[4\]\.sr0\.shift_reg\[34\]
*235 genblk1\[4\]\.sr0\.shift_reg\[35\]
*236 genblk1\[4\]\.sr0\.shift_reg\[36\]
*237 genblk1\[4\]\.sr0\.shift_reg\[37\]
*238 genblk1\[4\]\.sr0\.shift_reg\[38\]
*239 genblk1\[4\]\.sr0\.shift_reg\[3\]
*240 genblk1\[4\]\.sr0\.shift_reg\[4\]
*241 genblk1\[4\]\.sr0\.shift_reg\[5\]
*242 genblk1\[4\]\.sr0\.shift_reg\[6\]
*243 genblk1\[4\]\.sr0\.shift_reg\[7\]
*244 genblk1\[4\]\.sr0\.shift_reg\[8\]
*245 genblk1\[4\]\.sr0\.shift_reg\[9\]
*246 genblk1\[5\]\.sr0\.data_out
*247 genblk1\[5\]\.sr0\.shift_reg\[0\]
*248 genblk1\[5\]\.sr0\.shift_reg\[10\]
*249 genblk1\[5\]\.sr0\.shift_reg\[11\]
*250 genblk1\[5\]\.sr0\.shift_reg\[12\]
*251 genblk1\[5\]\.sr0\.shift_reg\[13\]
*252 genblk1\[5\]\.sr0\.shift_reg\[14\]
*253 genblk1\[5\]\.sr0\.shift_reg\[15\]
*254 genblk1\[5\]\.sr0\.shift_reg\[16\]
*255 genblk1\[5\]\.sr0\.shift_reg\[17\]
*256 genblk1\[5\]\.sr0\.shift_reg\[18\]
*257 genblk1\[5\]\.sr0\.shift_reg\[19\]
*258 genblk1\[5\]\.sr0\.shift_reg\[1\]
*259 genblk1\[5\]\.sr0\.shift_reg\[20\]
*260 genblk1\[5\]\.sr0\.shift_reg\[21\]
*261 genblk1\[5\]\.sr0\.shift_reg\[22\]
*262 genblk1\[5\]\.sr0\.shift_reg\[23\]
*263 genblk1\[5\]\.sr0\.shift_reg\[24\]
*264 genblk1\[5\]\.sr0\.shift_reg\[25\]
*265 genblk1\[5\]\.sr0\.shift_reg\[26\]
*266 genblk1\[5\]\.sr0\.shift_reg\[27\]
*267 genblk1\[5\]\.sr0\.shift_reg\[28\]
*268 genblk1\[5\]\.sr0\.shift_reg\[29\]
*269 genblk1\[5\]\.sr0\.shift_reg\[2\]
*270 genblk1\[5\]\.sr0\.shift_reg\[30\]
*271 genblk1\[5\]\.sr0\.shift_reg\[31\]
*272 genblk1\[5\]\.sr0\.shift_reg\[32\]
*273 genblk1\[5\]\.sr0\.shift_reg\[33\]
*274 genblk1\[5\]\.sr0\.shift_reg\[34\]
*275 genblk1\[5\]\.sr0\.shift_reg\[35\]
*276 genblk1\[5\]\.sr0\.shift_reg\[36\]
*277 genblk1\[5\]\.sr0\.shift_reg\[37\]
*278 genblk1\[5\]\.sr0\.shift_reg\[38\]
*279 genblk1\[5\]\.sr0\.shift_reg\[3\]
*280 genblk1\[5\]\.sr0\.shift_reg\[4\]
*281 genblk1\[5\]\.sr0\.shift_reg\[5\]
*282 genblk1\[5\]\.sr0\.shift_reg\[6\]
*283 genblk1\[5\]\.sr0\.shift_reg\[7\]
*284 genblk1\[5\]\.sr0\.shift_reg\[8\]
*285 genblk1\[5\]\.sr0\.shift_reg\[9\]
*286 net1
*287 net10
*288 net100
*289 net101
*290 net102
*291 net103
*292 net104
*293 net105
*294 net106
*295 net107
*296 net108
*297 net109
*298 net11
*299 net110
*300 net111
*301 net112
*302 net113
*303 net114
*304 net115
*305 net116
*306 net117
*307 net118
*308 net119
*309 net12
*310 net120
*311 net121
*312 net122
*313 net123
*314 net124
*315 net125
*316 net126
*317 net127
*318 net128
*319 net129
*320 net13
*321 net130
*322 net131
*323 net132
*324 net133
*325 net134
*326 net135
*327 net136
*328 net137
*329 net138
*330 net139
*331 net14
*332 net140
*333 net141
*334 net142
*335 net143
*336 net144
*337 net145
*338 net146
*339 net147
*340 net148
*341 net149
*342 net15
*343 net150
*344 net151
*345 net152
*346 net153
*347 net154
*348 net155
*349 net156
*350 net157
*351 net158
*352 net159
*353 net16
*354 net160
*355 net161
*356 net162
*357 net163
*358 net164
*359 net165
*360 net166
*361 net167
*362 net168
*363 net169
*364 net17
*365 net170
*366 net171
*367 net172
*368 net173
*369 net174
*370 net175
*371 net176
*372 net177
*373 net178
*374 net179
*375 net18
*376 net180
*377 net181
*378 net182
*379 net183
*380 net184
*381 net185
*382 net186
*383 net187
*384 net188
*385 net189
*386 net19
*387 net190
*388 net191
*389 net192
*390 net193
*391 net194
*392 net195
*393 net196
*394 net197
*395 net198
*396 net199
*397 net2
*398 net20
*399 net200
*400 net201
*401 net202
*402 net203
*403 net204
*404 net205
*405 net206
*406 net207
*407 net208
*408 net209
*409 net21
*410 net210
*411 net211
*412 net212
*413 net213
*414 net214
*415 net215
*416 net216
*417 net217
*418 net218
*419 net219
*420 net22
*421 net220
*422 net221
*423 net222
*424 net223
*425 net224
*426 net225
*427 net226
*428 net227
*429 net228
*430 net229
*431 net23
*432 net230
*433 net231
*434 net232
*435 net233
*436 net234
*437 net235
*438 net236
*439 net237
*440 net238
*441 net239
*442 net24
*443 net25
*444 net26
*445 net27
*446 net28
*447 net29
*448 net3
*449 net30
*450 net31
*451 net32
*452 net33
*453 net34
*454 net35
*455 net36
*456 net37
*457 net38
*458 net39
*459 net4
*460 net40
*461 net41
*462 net42
*463 net43
*464 net44
*465 net45
*466 net46
*467 net47
*468 net48
*469 net49
*470 net5
*471 net50
*472 net51
*473 net52
*474 net53
*475 net54
*476 net55
*477 net56
*478 net57
*479 net58
*480 net59
*481 net6
*482 net60
*483 net61
*484 net62
*485 net63
*486 net64
*487 net65
*488 net66
*489 net67
*490 net68
*491 net69
*492 net7
*493 net70
*494 net71
*495 net72
*496 net73
*497 net74
*498 net75
*499 net76
*500 net77
*501 net78
*502 net79
*503 net80
*504 net81
*505 net82
*506 net83
*507 net84
*508 net85
*509 net86
*510 net87
*511 net88
*512 net89
*513 net90
*514 net91
*515 net92
*516 net93
*517 net94
*518 net95
*519 net96
*520 net97
*521 net98
*522 net99
*523 ANTENNA_1
*524 ANTENNA_2
*525 FILLER_0_110
*526 FILLER_0_113
*527 FILLER_0_123
*528 FILLER_0_13
*529 FILLER_0_135
*530 FILLER_0_139
*531 FILLER_0_141
*532 FILLER_0_151
*533 FILLER_0_157
*534 FILLER_0_166
*535 FILLER_0_169
*536 FILLER_0_191
*537 FILLER_0_195
*538 FILLER_0_197
*539 FILLER_0_215
*540 FILLER_0_223
*541 FILLER_0_225
*542 FILLER_0_235
*543 FILLER_0_247
*544 FILLER_0_251
*545 FILLER_0_253
*546 FILLER_0_26
*547 FILLER_0_263
*548 FILLER_0_275
*549 FILLER_0_279
*550 FILLER_0_281
*551 FILLER_0_29
*552 FILLER_0_293
*553 FILLER_0_3
*554 FILLER_0_34
*555 FILLER_0_54
*556 FILLER_0_57
*557 FILLER_0_65
*558 FILLER_0_82
*559 FILLER_0_85
*560 FILLER_0_93
*561 FILLER_10_106
*562 FILLER_10_114
*563 FILLER_10_133
*564 FILLER_10_139
*565 FILLER_10_141
*566 FILLER_10_159
*567 FILLER_10_187
*568 FILLER_10_195
*569 FILLER_10_197
*570 FILLER_10_207
*571 FILLER_10_219
*572 FILLER_10_231
*573 FILLER_10_243
*574 FILLER_10_251
*575 FILLER_10_253
*576 FILLER_10_26
*577 FILLER_10_263
*578 FILLER_10_275
*579 FILLER_10_287
*580 FILLER_10_29
*581 FILLER_10_3
*582 FILLER_10_34
*583 FILLER_10_54
*584 FILLER_10_82
*585 FILLER_10_85
*586 FILLER_10_89
*587 FILLER_10_9
*588 FILLER_11_104
*589 FILLER_11_113
*590 FILLER_11_131
*591 FILLER_11_153
*592 FILLER_11_157
*593 FILLER_11_166
*594 FILLER_11_169
*595 FILLER_11_181
*596 FILLER_11_185
*597 FILLER_11_20
*598 FILLER_11_206
*599 FILLER_11_218
*600 FILLER_11_225
*601 FILLER_11_235
*602 FILLER_11_247
*603 FILLER_11_259
*604 FILLER_11_271
*605 FILLER_11_279
*606 FILLER_11_281
*607 FILLER_11_293
*608 FILLER_11_3
*609 FILLER_11_44
*610 FILLER_11_57
*611 FILLER_11_65
*612 FILLER_11_8
*613 FILLER_11_84
*614 FILLER_12_111
*615 FILLER_12_135
*616 FILLER_12_139
*617 FILLER_12_141
*618 FILLER_12_163
*619 FILLER_12_183
*620 FILLER_12_195
*621 FILLER_12_197
*622 FILLER_12_207
*623 FILLER_12_219
*624 FILLER_12_231
*625 FILLER_12_243
*626 FILLER_12_251
*627 FILLER_12_253
*628 FILLER_12_26
*629 FILLER_12_265
*630 FILLER_12_277
*631 FILLER_12_289
*632 FILLER_12_29
*633 FILLER_12_297
*634 FILLER_12_3
*635 FILLER_12_33
*636 FILLER_12_42
*637 FILLER_12_62
*638 FILLER_12_82
*639 FILLER_12_85
*640 FILLER_12_9
*641 FILLER_13_103
*642 FILLER_13_111
*643 FILLER_13_113
*644 FILLER_13_121
*645 FILLER_13_138
*646 FILLER_13_14
*647 FILLER_13_158
*648 FILLER_13_166
*649 FILLER_13_169
*650 FILLER_13_187
*651 FILLER_13_199
*652 FILLER_13_211
*653 FILLER_13_223
*654 FILLER_13_225
*655 FILLER_13_235
*656 FILLER_13_247
*657 FILLER_13_259
*658 FILLER_13_271
*659 FILLER_13_279
*660 FILLER_13_281
*661 FILLER_13_293
*662 FILLER_13_3
*663 FILLER_13_34
*664 FILLER_13_54
*665 FILLER_13_57
*666 FILLER_13_65
*667 FILLER_13_83
*668 FILLER_14_115
*669 FILLER_14_135
*670 FILLER_14_139
*671 FILLER_14_141
*672 FILLER_14_151
*673 FILLER_14_163
*674 FILLER_14_183
*675 FILLER_14_195
*676 FILLER_14_197
*677 FILLER_14_207
*678 FILLER_14_219
*679 FILLER_14_23
*680 FILLER_14_231
*681 FILLER_14_243
*682 FILLER_14_251
*683 FILLER_14_253
*684 FILLER_14_265
*685 FILLER_14_27
*686 FILLER_14_277
*687 FILLER_14_289
*688 FILLER_14_29
*689 FILLER_14_297
*690 FILLER_14_3
*691 FILLER_14_37
*692 FILLER_14_54
*693 FILLER_14_62
*694 FILLER_14_79
*695 FILLER_14_83
*696 FILLER_14_85
*697 FILLER_14_95
*698 FILLER_15_110
*699 FILLER_15_113
*700 FILLER_15_129
*701 FILLER_15_149
*702 FILLER_15_161
*703 FILLER_15_167
*704 FILLER_15_169
*705 FILLER_15_187
*706 FILLER_15_199
*707 FILLER_15_211
*708 FILLER_15_22
*709 FILLER_15_223
*710 FILLER_15_225
*711 FILLER_15_235
*712 FILLER_15_247
*713 FILLER_15_259
*714 FILLER_15_271
*715 FILLER_15_279
*716 FILLER_15_281
*717 FILLER_15_293
*718 FILLER_15_3
*719 FILLER_15_34
*720 FILLER_15_54
*721 FILLER_15_57
*722 FILLER_15_61
*723 FILLER_15_78
*724 FILLER_15_8
*725 FILLER_15_90
*726 FILLER_16_103
*727 FILLER_16_115
*728 FILLER_16_135
*729 FILLER_16_139
*730 FILLER_16_141
*731 FILLER_16_151
*732 FILLER_16_159
*733 FILLER_16_177
*734 FILLER_16_189
*735 FILLER_16_195
*736 FILLER_16_197
*737 FILLER_16_207
*738 FILLER_16_219
*739 FILLER_16_231
*740 FILLER_16_243
*741 FILLER_16_25
*742 FILLER_16_251
*743 FILLER_16_253
*744 FILLER_16_265
*745 FILLER_16_277
*746 FILLER_16_289
*747 FILLER_16_29
*748 FILLER_16_297
*749 FILLER_16_3
*750 FILLER_16_53
*751 FILLER_16_73
*752 FILLER_16_81
*753 FILLER_16_85
*754 FILLER_17_103
*755 FILLER_17_111
*756 FILLER_17_113
*757 FILLER_17_135
*758 FILLER_17_155
*759 FILLER_17_167
*760 FILLER_17_169
*761 FILLER_17_187
*762 FILLER_17_199
*763 FILLER_17_211
*764 FILLER_17_223
*765 FILLER_17_225
*766 FILLER_17_237
*767 FILLER_17_249
*768 FILLER_17_25
*769 FILLER_17_261
*770 FILLER_17_273
*771 FILLER_17_279
*772 FILLER_17_281
*773 FILLER_17_293
*774 FILLER_17_3
*775 FILLER_17_33
*776 FILLER_17_42
*777 FILLER_17_54
*778 FILLER_17_57
*779 FILLER_17_63
*780 FILLER_17_80
*781 FILLER_17_86
*782 FILLER_18_115
*783 FILLER_18_121
*784 FILLER_18_138
*785 FILLER_18_141
*786 FILLER_18_147
*787 FILLER_18_156
*788 FILLER_18_176
*789 FILLER_18_188
*790 FILLER_18_197
*791 FILLER_18_207
*792 FILLER_18_219
*793 FILLER_18_231
*794 FILLER_18_243
*795 FILLER_18_251
*796 FILLER_18_253
*797 FILLER_18_26
*798 FILLER_18_265
*799 FILLER_18_277
*800 FILLER_18_289
*801 FILLER_18_29
*802 FILLER_18_297
*803 FILLER_18_3
*804 FILLER_18_51
*805 FILLER_18_71
*806 FILLER_18_83
*807 FILLER_18_85
*808 FILLER_18_9
*809 FILLER_18_95
*810 FILLER_19_109
*811 FILLER_19_113
*812 FILLER_19_119
*813 FILLER_19_136
*814 FILLER_19_156
*815 FILLER_19_169
*816 FILLER_19_187
*817 FILLER_19_199
*818 FILLER_19_211
*819 FILLER_19_223
*820 FILLER_19_225
*821 FILLER_19_237
*822 FILLER_19_249
*823 FILLER_19_26
*824 FILLER_19_261
*825 FILLER_19_273
*826 FILLER_19_279
*827 FILLER_19_281
*828 FILLER_19_293
*829 FILLER_19_3
*830 FILLER_19_33
*831 FILLER_19_37
*832 FILLER_19_54
*833 FILLER_19_57
*834 FILLER_19_77
*835 FILLER_19_89
*836 FILLER_19_9
*837 FILLER_1_109
*838 FILLER_1_113
*839 FILLER_1_125
*840 FILLER_1_14
*841 FILLER_1_142
*842 FILLER_1_154
*843 FILLER_1_163
*844 FILLER_1_167
*845 FILLER_1_169
*846 FILLER_1_187
*847 FILLER_1_207
*848 FILLER_1_219
*849 FILLER_1_223
*850 FILLER_1_225
*851 FILLER_1_235
*852 FILLER_1_247
*853 FILLER_1_259
*854 FILLER_1_271
*855 FILLER_1_279
*856 FILLER_1_281
*857 FILLER_1_293
*858 FILLER_1_3
*859 FILLER_1_34
*860 FILLER_1_54
*861 FILLER_1_57
*862 FILLER_1_69
*863 FILLER_1_89
*864 FILLER_20_103
*865 FILLER_20_131
*866 FILLER_20_139
*867 FILLER_20_141
*868 FILLER_20_149
*869 FILLER_20_172
*870 FILLER_20_192
*871 FILLER_20_197
*872 FILLER_20_207
*873 FILLER_20_219
*874 FILLER_20_231
*875 FILLER_20_243
*876 FILLER_20_251
*877 FILLER_20_253
*878 FILLER_20_26
*879 FILLER_20_265
*880 FILLER_20_277
*881 FILLER_20_289
*882 FILLER_20_29
*883 FILLER_20_297
*884 FILLER_20_3
*885 FILLER_20_34
*886 FILLER_20_54
*887 FILLER_20_60
*888 FILLER_20_81
*889 FILLER_20_85
*890 FILLER_20_9
*891 FILLER_21_110
*892 FILLER_21_113
*893 FILLER_21_121
*894 FILLER_21_138
*895 FILLER_21_14
*896 FILLER_21_166
*897 FILLER_21_169
*898 FILLER_21_179
*899 FILLER_21_191
*900 FILLER_21_203
*901 FILLER_21_215
*902 FILLER_21_223
*903 FILLER_21_225
*904 FILLER_21_237
*905 FILLER_21_249
*906 FILLER_21_261
*907 FILLER_21_273
*908 FILLER_21_279
*909 FILLER_21_281
*910 FILLER_21_293
*911 FILLER_21_3
*912 FILLER_21_34
*913 FILLER_21_54
*914 FILLER_21_57
*915 FILLER_21_77
*916 FILLER_21_81
*917 FILLER_21_90
*918 FILLER_22_121
*919 FILLER_22_129
*920 FILLER_22_138
*921 FILLER_22_141
*922 FILLER_22_157
*923 FILLER_22_177
*924 FILLER_22_189
*925 FILLER_22_195
*926 FILLER_22_197
*927 FILLER_22_207
*928 FILLER_22_219
*929 FILLER_22_231
*930 FILLER_22_243
*931 FILLER_22_251
*932 FILLER_22_253
*933 FILLER_22_26
*934 FILLER_22_265
*935 FILLER_22_277
*936 FILLER_22_289
*937 FILLER_22_29
*938 FILLER_22_297
*939 FILLER_22_3
*940 FILLER_22_33
*941 FILLER_22_42
*942 FILLER_22_62
*943 FILLER_22_82
*944 FILLER_22_85
*945 FILLER_22_9
*946 FILLER_22_97
*947 FILLER_23_105
*948 FILLER_23_111
*949 FILLER_23_113
*950 FILLER_23_121
*951 FILLER_23_138
*952 FILLER_23_14
*953 FILLER_23_158
*954 FILLER_23_166
*955 FILLER_23_169
*956 FILLER_23_187
*957 FILLER_23_199
*958 FILLER_23_211
*959 FILLER_23_223
*960 FILLER_23_225
*961 FILLER_23_237
*962 FILLER_23_249
*963 FILLER_23_261
*964 FILLER_23_273
*965 FILLER_23_279
*966 FILLER_23_281
*967 FILLER_23_293
*968 FILLER_23_3
*969 FILLER_23_34
*970 FILLER_23_54
*971 FILLER_23_57
*972 FILLER_23_73
*973 FILLER_23_85
*974 FILLER_24_115
*975 FILLER_24_135
*976 FILLER_24_139
*977 FILLER_24_14
*978 FILLER_24_141
*979 FILLER_24_153
*980 FILLER_24_173
*981 FILLER_24_193
*982 FILLER_24_197
*983 FILLER_24_207
*984 FILLER_24_219
*985 FILLER_24_231
*986 FILLER_24_243
*987 FILLER_24_251
*988 FILLER_24_253
*989 FILLER_24_26
*990 FILLER_24_265
*991 FILLER_24_277
*992 FILLER_24_289
*993 FILLER_24_29
*994 FILLER_24_297
*995 FILLER_24_3
*996 FILLER_24_47
*997 FILLER_24_67
*998 FILLER_24_73
*999 FILLER_24_82
*1000 FILLER_24_85
*1001 FILLER_24_95
*1002 FILLER_25_101
*1003 FILLER_25_109
*1004 FILLER_25_113
*1005 FILLER_25_123
*1006 FILLER_25_143
*1007 FILLER_25_149
*1008 FILLER_25_166
*1009 FILLER_25_169
*1010 FILLER_25_187
*1011 FILLER_25_199
*1012 FILLER_25_211
*1013 FILLER_25_223
*1014 FILLER_25_225
*1015 FILLER_25_237
*1016 FILLER_25_24
*1017 FILLER_25_249
*1018 FILLER_25_261
*1019 FILLER_25_273
*1020 FILLER_25_279
*1021 FILLER_25_281
*1022 FILLER_25_293
*1023 FILLER_25_3
*1024 FILLER_25_44
*1025 FILLER_25_51
*1026 FILLER_25_55
*1027 FILLER_25_57
*1028 FILLER_25_7
*1029 FILLER_25_76
*1030 FILLER_25_84
*1031 FILLER_26_103
*1032 FILLER_26_115
*1033 FILLER_26_135
*1034 FILLER_26_139
*1035 FILLER_26_141
*1036 FILLER_26_147
*1037 FILLER_26_156
*1038 FILLER_26_176
*1039 FILLER_26_188
*1040 FILLER_26_197
*1041 FILLER_26_207
*1042 FILLER_26_219
*1043 FILLER_26_231
*1044 FILLER_26_243
*1045 FILLER_26_251
*1046 FILLER_26_253
*1047 FILLER_26_26
*1048 FILLER_26_265
*1049 FILLER_26_277
*1050 FILLER_26_289
*1051 FILLER_26_29
*1052 FILLER_26_297
*1053 FILLER_26_3
*1054 FILLER_26_33
*1055 FILLER_26_42
*1056 FILLER_26_62
*1057 FILLER_26_82
*1058 FILLER_26_85
*1059 FILLER_26_9
*1060 FILLER_27_107
*1061 FILLER_27_111
*1062 FILLER_27_113
*1063 FILLER_27_121
*1064 FILLER_27_138
*1065 FILLER_27_166
*1066 FILLER_27_169
*1067 FILLER_27_187
*1068 FILLER_27_199
*1069 FILLER_27_211
*1070 FILLER_27_223
*1071 FILLER_27_225
*1072 FILLER_27_23
*1073 FILLER_27_237
*1074 FILLER_27_249
*1075 FILLER_27_261
*1076 FILLER_27_273
*1077 FILLER_27_279
*1078 FILLER_27_281
*1079 FILLER_27_293
*1080 FILLER_27_3
*1081 FILLER_27_47
*1082 FILLER_27_55
*1083 FILLER_27_57
*1084 FILLER_27_76
*1085 FILLER_27_88
*1086 FILLER_28_103
*1087 FILLER_28_109
*1088 FILLER_28_118
*1089 FILLER_28_138
*1090 FILLER_28_141
*1091 FILLER_28_153
*1092 FILLER_28_170
*1093 FILLER_28_182
*1094 FILLER_28_194
*1095 FILLER_28_197
*1096 FILLER_28_209
*1097 FILLER_28_221
*1098 FILLER_28_233
*1099 FILLER_28_245
*1100 FILLER_28_251
*1101 FILLER_28_253
*1102 FILLER_28_26
*1103 FILLER_28_265
*1104 FILLER_28_277
*1105 FILLER_28_289
*1106 FILLER_28_29
*1107 FILLER_28_297
*1108 FILLER_28_3
*1109 FILLER_28_47
*1110 FILLER_28_55
*1111 FILLER_28_73
*1112 FILLER_28_81
*1113 FILLER_28_85
*1114 FILLER_28_9
*1115 FILLER_29_101
*1116 FILLER_29_110
*1117 FILLER_29_113
*1118 FILLER_29_135
*1119 FILLER_29_147
*1120 FILLER_29_166
*1121 FILLER_29_169
*1122 FILLER_29_179
*1123 FILLER_29_191
*1124 FILLER_29_203
*1125 FILLER_29_215
*1126 FILLER_29_223
*1127 FILLER_29_225
*1128 FILLER_29_237
*1129 FILLER_29_249
*1130 FILLER_29_25
*1131 FILLER_29_261
*1132 FILLER_29_273
*1133 FILLER_29_279
*1134 FILLER_29_281
*1135 FILLER_29_293
*1136 FILLER_29_3
*1137 FILLER_29_45
*1138 FILLER_29_53
*1139 FILLER_29_57
*1140 FILLER_29_63
*1141 FILLER_29_72
*1142 FILLER_29_84
*1143 FILLER_29_95
*1144 FILLER_2_107
*1145 FILLER_2_119
*1146 FILLER_2_13
*1147 FILLER_2_138
*1148 FILLER_2_141
*1149 FILLER_2_149
*1150 FILLER_2_167
*1151 FILLER_2_189
*1152 FILLER_2_195
*1153 FILLER_2_197
*1154 FILLER_2_215
*1155 FILLER_2_235
*1156 FILLER_2_247
*1157 FILLER_2_251
*1158 FILLER_2_253
*1159 FILLER_2_26
*1160 FILLER_2_263
*1161 FILLER_2_275
*1162 FILLER_2_287
*1163 FILLER_2_29
*1164 FILLER_2_3
*1165 FILLER_2_33
*1166 FILLER_2_42
*1167 FILLER_2_62
*1168 FILLER_2_82
*1169 FILLER_2_85
*1170 FILLER_30_106
*1171 FILLER_30_118
*1172 FILLER_30_138
*1173 FILLER_30_14
*1174 FILLER_30_141
*1175 FILLER_30_155
*1176 FILLER_30_167
*1177 FILLER_30_179
*1178 FILLER_30_191
*1179 FILLER_30_195
*1180 FILLER_30_197
*1181 FILLER_30_209
*1182 FILLER_30_221
*1183 FILLER_30_233
*1184 FILLER_30_245
*1185 FILLER_30_251
*1186 FILLER_30_253
*1187 FILLER_30_26
*1188 FILLER_30_265
*1189 FILLER_30_277
*1190 FILLER_30_289
*1191 FILLER_30_29
*1192 FILLER_30_297
*1193 FILLER_30_3
*1194 FILLER_30_34
*1195 FILLER_30_38
*1196 FILLER_30_47
*1197 FILLER_30_67
*1198 FILLER_30_73
*1199 FILLER_30_82
*1200 FILLER_30_85
*1201 FILLER_30_97
*1202 FILLER_31_110
*1203 FILLER_31_113
*1204 FILLER_31_125
*1205 FILLER_31_142
*1206 FILLER_31_154
*1207 FILLER_31_166
*1208 FILLER_31_169
*1209 FILLER_31_181
*1210 FILLER_31_193
*1211 FILLER_31_205
*1212 FILLER_31_217
*1213 FILLER_31_223
*1214 FILLER_31_225
*1215 FILLER_31_23
*1216 FILLER_31_237
*1217 FILLER_31_249
*1218 FILLER_31_261
*1219 FILLER_31_273
*1220 FILLER_31_279
*1221 FILLER_31_281
*1222 FILLER_31_293
*1223 FILLER_31_3
*1224 FILLER_31_31
*1225 FILLER_31_42
*1226 FILLER_31_54
*1227 FILLER_31_57
*1228 FILLER_31_61
*1229 FILLER_31_70
*1230 FILLER_31_90
*1231 FILLER_32_115
*1232 FILLER_32_121
*1233 FILLER_32_138
*1234 FILLER_32_141
*1235 FILLER_32_145
*1236 FILLER_32_154
*1237 FILLER_32_166
*1238 FILLER_32_170
*1239 FILLER_32_187
*1240 FILLER_32_195
*1241 FILLER_32_197
*1242 FILLER_32_219
*1243 FILLER_32_231
*1244 FILLER_32_243
*1245 FILLER_32_251
*1246 FILLER_32_253
*1247 FILLER_32_26
*1248 FILLER_32_265
*1249 FILLER_32_277
*1250 FILLER_32_289
*1251 FILLER_32_29
*1252 FILLER_32_297
*1253 FILLER_32_3
*1254 FILLER_32_51
*1255 FILLER_32_71
*1256 FILLER_32_83
*1257 FILLER_32_85
*1258 FILLER_32_9
*1259 FILLER_32_95
*1260 FILLER_33_102
*1261 FILLER_33_110
*1262 FILLER_33_113
*1263 FILLER_33_131
*1264 FILLER_33_143
*1265 FILLER_33_154
*1266 FILLER_33_166
*1267 FILLER_33_169
*1268 FILLER_33_187
*1269 FILLER_33_199
*1270 FILLER_33_211
*1271 FILLER_33_223
*1272 FILLER_33_225
*1273 FILLER_33_237
*1274 FILLER_33_249
*1275 FILLER_33_261
*1276 FILLER_33_27
*1277 FILLER_33_273
*1278 FILLER_33_279
*1279 FILLER_33_281
*1280 FILLER_33_293
*1281 FILLER_33_3
*1282 FILLER_33_35
*1283 FILLER_33_54
*1284 FILLER_33_57
*1285 FILLER_33_65
*1286 FILLER_33_82
*1287 FILLER_34_103
*1288 FILLER_34_109
*1289 FILLER_34_126
*1290 FILLER_34_138
*1291 FILLER_34_141
*1292 FILLER_34_149
*1293 FILLER_34_168
*1294 FILLER_34_188
*1295 FILLER_34_197
*1296 FILLER_34_215
*1297 FILLER_34_227
*1298 FILLER_34_239
*1299 FILLER_34_251
*1300 FILLER_34_253
*1301 FILLER_34_26
*1302 FILLER_34_265
*1303 FILLER_34_277
*1304 FILLER_34_289
*1305 FILLER_34_29
*1306 FILLER_34_297
*1307 FILLER_34_3
*1308 FILLER_34_33
*1309 FILLER_34_42
*1310 FILLER_34_62
*1311 FILLER_34_82
*1312 FILLER_34_85
*1313 FILLER_34_9
*1314 FILLER_35_100
*1315 FILLER_35_113
*1316 FILLER_35_121
*1317 FILLER_35_14
*1318 FILLER_35_140
*1319 FILLER_35_148
*1320 FILLER_35_166
*1321 FILLER_35_169
*1322 FILLER_35_187
*1323 FILLER_35_207
*1324 FILLER_35_219
*1325 FILLER_35_223
*1326 FILLER_35_225
*1327 FILLER_35_237
*1328 FILLER_35_249
*1329 FILLER_35_261
*1330 FILLER_35_273
*1331 FILLER_35_279
*1332 FILLER_35_281
*1333 FILLER_35_293
*1334 FILLER_35_3
*1335 FILLER_35_34
*1336 FILLER_35_54
*1337 FILLER_35_57
*1338 FILLER_35_63
*1339 FILLER_35_80
*1340 FILLER_36_118
*1341 FILLER_36_138
*1342 FILLER_36_141
*1343 FILLER_36_169
*1344 FILLER_36_189
*1345 FILLER_36_195
*1346 FILLER_36_197
*1347 FILLER_36_215
*1348 FILLER_36_227
*1349 FILLER_36_239
*1350 FILLER_36_251
*1351 FILLER_36_253
*1352 FILLER_36_26
*1353 FILLER_36_265
*1354 FILLER_36_277
*1355 FILLER_36_289
*1356 FILLER_36_29
*1357 FILLER_36_297
*1358 FILLER_36_3
*1359 FILLER_36_43
*1360 FILLER_36_67
*1361 FILLER_36_73
*1362 FILLER_36_82
*1363 FILLER_36_85
*1364 FILLER_36_89
*1365 FILLER_36_9
*1366 FILLER_36_98
*1367 FILLER_37_103
*1368 FILLER_37_111
*1369 FILLER_37_113
*1370 FILLER_37_121
*1371 FILLER_37_139
*1372 FILLER_37_147
*1373 FILLER_37_164
*1374 FILLER_37_169
*1375 FILLER_37_187
*1376 FILLER_37_199
*1377 FILLER_37_211
*1378 FILLER_37_223
*1379 FILLER_37_225
*1380 FILLER_37_237
*1381 FILLER_37_249
*1382 FILLER_37_261
*1383 FILLER_37_273
*1384 FILLER_37_279
*1385 FILLER_37_281
*1386 FILLER_37_293
*1387 FILLER_37_3
*1388 FILLER_37_30
*1389 FILLER_37_54
*1390 FILLER_37_57
*1391 FILLER_37_65
*1392 FILLER_37_8
*1393 FILLER_37_82
*1394 FILLER_37_86
*1395 FILLER_38_109
*1396 FILLER_38_121
*1397 FILLER_38_138
*1398 FILLER_38_141
*1399 FILLER_38_147
*1400 FILLER_38_156
*1401 FILLER_38_160
*1402 FILLER_38_177
*1403 FILLER_38_189
*1404 FILLER_38_195
*1405 FILLER_38_197
*1406 FILLER_38_207