*SPEF "ieee 1481-1999"
*DESIGN "HiddenRoom_HiddenCPU"
*DATE "11:11:11 Fri 11 11, 1111"
*VENDOR "OpenRCX"
*PROGRAM "Parallel Extraction"
*VERSION "1.0"
*DESIGN_FLOW "NAME_SCOPE LOCAL" "PIN_CAP NONE"
*DIVIDER /
*DELIMITER :
*BUS_DELIMITER []
*T_UNIT 1 NS
*C_UNIT 1 PF
*R_UNIT 1 OHM
*L_UNIT 1 HENRY

*NAME_MAP
*1 io_in[0]
*2 io_in[1]
*3 io_in[2]
*4 io_in[3]
*5 io_in[4]
*6 io_in[5]
*7 io_in[6]
*8 io_in[7]
*9 io_out[0]
*10 io_out[1]
*11 io_out[2]
*12 io_out[3]
*13 io_out[4]
*14 io_out[5]
*15 io_out[6]
*16 io_out[7]
*19 _0000_
*20 _0001_
*21 _0002_
*22 _0003_
*23 _0004_
*24 _0005_
*25 _0006_
*26 _0007_
*27 _0008_
*28 _0009_
*29 _0010_
*30 _0011_
*31 _0012_
*32 _0013_
*33 _0014_
*34 _0015_
*35 _0016_
*36 _0017_
*37 _0018_
*38 _0019_
*39 _0020_
*40 _0021_
*41 _0022_
*42 _0023_
*43 _0024_
*44 _0025_
*45 _0026_
*46 _0027_
*47 _0028_
*48 _0029_
*49 _0030_
*50 _0031_
*51 _0032_
*52 _0033_
*53 _0034_
*54 _0035_
*55 _0036_
*56 _0037_
*57 _0038_
*58 _0039_
*59 _0040_
*60 _0041_
*61 _0042_
*62 _0043_
*63 _0044_
*64 _0045_
*65 _0046_
*66 _0047_
*67 _0048_
*68 _0049_
*69 _0050_
*70 _0051_
*71 _0052_
*72 _0053_
*73 _0054_
*74 _0055_
*75 _0056_
*76 _0057_
*77 _0058_
*78 _0059_
*79 _0060_
*80 _0061_
*81 _0062_
*82 _0063_
*83 _0064_
*84 _0065_
*85 _0066_
*86 _0067_
*87 _0068_
*88 _0069_
*89 _0070_
*90 _0071_
*91 _0072_
*92 _0073_
*93 _0074_
*94 _0075_
*95 _0076_
*96 _0077_
*97 _0078_
*98 _0079_
*99 _0080_
*100 _0081_
*101 _0082_
*102 _0083_
*103 _0084_
*104 _0085_
*105 _0086_
*106 _0087_
*107 _0088_
*108 _0089_
*109 _0090_
*110 _0091_
*111 _0092_
*112 _0093_
*113 _0094_
*114 _0095_
*115 _0096_
*116 _0097_
*117 _0098_
*118 _0099_
*119 _0100_
*120 _0101_
*121 _0102_
*122 _0103_
*123 _0104_
*124 _0105_
*125 _0106_
*126 _0107_
*127 _0108_
*128 _0109_
*129 _0110_
*130 _0111_
*131 _0112_
*132 _0113_
*133 _0114_
*134 _0115_
*135 _0116_
*136 _0117_
*137 _0118_
*138 _0119_
*139 _0120_
*140 _0121_
*141 _0122_
*142 _0123_
*143 _0124_
*144 _0125_
*145 _0126_
*146 _0127_
*147 _0128_
*148 _0129_
*149 _0130_
*150 _0131_
*151 _0132_
*152 _0133_
*153 _0134_
*154 _0135_
*155 _0136_
*156 _0137_
*157 _0138_
*158 _0139_
*159 _0140_
*160 _0141_
*161 _0142_
*162 _0143_
*163 _0144_
*164 _0145_
*165 _0146_
*166 _0147_
*167 _0148_
*168 _0149_
*169 _0150_
*170 _0151_
*171 _0152_
*172 _0153_
*173 _0154_
*174 _0155_
*175 _0156_
*176 _0157_
*177 _0158_
*178 _0159_
*179 _0160_
*180 _0161_
*181 _0162_
*182 _0163_
*183 _0164_
*184 _0165_
*185 _0166_
*186 _0167_
*187 _0168_
*188 _0169_
*189 _0170_
*190 _0171_
*191 _0172_
*192 _0173_
*193 _0174_
*194 _0175_
*195 _0176_
*196 _0177_
*197 _0178_
*198 _0179_
*199 _0180_
*200 _0181_
*201 _0182_
*202 _0183_
*203 _0184_
*204 _0185_
*205 _0186_
*206 _0187_
*207 _0188_
*208 _0189_
*209 _0190_
*210 _0191_
*211 _0192_
*212 _0193_
*213 _0194_
*214 _0195_
*215 _0196_
*216 _0197_
*217 _0198_
*218 _0199_
*219 _0200_
*220 _0201_
*221 _0202_
*222 _0203_
*223 _0204_
*224 _0205_
*225 _0206_
*226 _0207_
*227 _0208_
*228 _0209_
*229 _0210_
*230 _0211_
*231 _0212_
*232 _0213_
*233 _0214_
*234 _0215_
*235 _0216_
*236 _0217_
*237 _0218_
*238 _0219_
*239 _0220_
*240 _0221_
*241 _0222_
*242 _0223_
*243 _0224_
*244 _0225_
*245 _0226_
*246 _0227_
*247 _0228_
*248 _0229_
*249 _0230_
*250 _0231_
*251 _0232_
*252 _0233_
*253 _0234_
*254 _0235_
*255 _0236_
*256 _0237_
*257 _0238_
*258 _0239_
*259 _0240_
*260 _0241_
*261 _0242_
*262 _0243_
*263 _0244_
*264 _0245_
*265 _0246_
*266 _0247_
*267 _0248_
*268 _0249_
*269 _0250_
*270 _0251_
*271 _0252_
*272 _0253_
*273 _0254_
*274 _0255_
*275 _0256_
*276 _0257_
*277 _0258_
*278 _0259_
*279 _0260_
*280 _0261_
*281 _0262_
*282 _0263_
*283 _0264_
*284 _0265_
*285 _0266_
*286 _0267_
*287 _0268_
*288 _0269_
*289 _0270_
*290 _0271_
*291 _0272_
*292 _0273_
*293 _0274_
*294 _0275_
*295 _0276_
*296 _0277_
*297 _0278_
*298 _0279_
*299 _0280_
*300 _0281_
*301 _0282_
*302 _0283_
*303 _0284_
*304 _0285_
*305 _0286_
*306 _0287_
*307 _0288_
*308 _0289_
*309 _0290_
*310 _0291_
*311 _0292_
*312 _0293_
*313 _0294_
*314 _0295_
*315 _0296_
*316 _0297_
*317 _0298_
*318 _0299_
*319 _0300_
*320 _0301_
*321 _0302_
*322 _0303_
*323 _0304_
*324 _0305_
*325 _0306_
*326 _0307_
*327 _0308_
*328 _0309_
*329 _0310_
*330 _0311_
*331 _0312_
*332 _0313_
*333 _0314_
*334 _0315_
*335 _0316_
*336 _0317_
*337 _0318_
*338 _0319_
*339 _0320_
*340 _0321_
*341 _0322_
*342 _0323_
*343 _0324_
*344 _0325_
*345 _0326_
*346 _0327_
*347 _0328_
*348 _0329_
*349 _0330_
*350 _0331_
*351 _0332_
*352 _0333_
*353 _0334_
*354 _0335_
*355 _0336_
*356 _0337_
*357 _0338_
*358 _0339_
*359 _0340_
*360 _0341_
*361 _0342_
*362 _0343_
*363 _0344_
*364 _0345_
*365 _0346_
*366 _0347_
*367 _0348_
*368 _0349_
*369 _0350_
*370 _0351_
*371 _0352_
*372 _0353_
*373 _0354_
*374 _0355_
*375 _0356_
*376 _0357_
*377 _0358_
*378 _0359_
*379 _0360_
*380 _0361_
*381 _0362_
*382 _0363_
*383 _0364_
*384 _0365_
*385 _0366_
*386 _0367_
*387 _0368_
*388 _0369_
*389 _0370_
*390 _0371_
*391 _0372_
*392 _0373_
*393 _0374_
*394 _0375_
*395 _0376_
*396 _0377_
*397 _0378_
*398 _0379_
*399 _0380_
*400 _0381_
*401 _0382_
*402 _0383_
*403 _0384_
*404 _0385_
*405 _0386_
*406 _0387_
*407 _0388_
*408 _0389_
*409 _0390_
*410 _0391_
*411 _0392_
*412 _0393_
*413 _0394_
*414 _0395_
*415 _0396_
*416 _0397_
*417 _0398_
*418 _0399_
*419 _0400_
*420 _0401_
*421 _0402_
*422 _0403_
*423 _0404_
*424 _0405_
*425 _0406_
*426 _0407_
*427 _0408_
*428 _0409_
*429 _0410_
*430 _0411_
*431 _0412_
*432 _0413_
*433 _0414_
*434 _0415_
*435 _0416_
*436 _0417_
*437 _0418_
*438 _0419_
*439 _0420_
*440 _0421_
*441 _0422_
*442 _0423_
*443 _0424_
*444 _0425_
*445 _0426_
*446 _0427_
*447 _0428_
*448 _0429_
*449 _0430_
*450 _0431_
*451 _0432_
*452 _0433_
*453 _0434_
*454 _0435_
*455 _0436_
*456 _0437_
*457 _0438_
*458 _0439_
*459 _0440_
*460 _0441_
*461 _0442_
*462 _0443_
*463 _0444_
*464 _0445_
*465 _0446_
*466 _0447_
*467 _0448_
*468 _0449_
*469 _0450_
*470 _0451_
*471 _0452_
*472 _0453_
*473 _0454_
*474 _0455_
*475 _0456_
*476 _0457_
*477 _0458_
*478 _0459_
*479 _0460_
*480 _0461_
*481 _0462_
*482 _0463_
*483 _0464_
*484 _0465_
*485 _0466_
*486 _0467_
*487 _0468_
*488 _0469_
*489 _0470_
*490 _0471_
*491 _0472_
*492 _0473_
*493 _0474_
*494 _0475_
*495 _0476_
*496 _0477_
*497 _0478_
*498 _0479_
*499 _0480_
*500 _0481_
*501 _0482_
*502 _0483_
*503 _0484_
*504 _0485_
*505 _0486_
*506 _0487_
*507 _0488_
*508 _0489_
*509 _0490_
*510 _0491_
*511 _0492_
*512 _0493_
*513 _0494_
*514 _0495_
*515 _0496_
*516 _0497_
*517 _0498_
*518 _0499_
*519 _0500_
*520 _0501_
*521 _0502_
*522 _0503_
*523 _0504_
*524 _0505_
*525 _0506_
*526 _0507_
*527 _0508_
*528 _0509_
*529 _0510_
*530 _0511_
*531 _0512_
*532 _0513_
*533 _0514_
*534 _0515_
*535 _0516_
*536 _0517_
*537 _0518_
*538 _0519_
*539 _0520_
*540 _0521_
*541 _0522_
*542 _0523_
*543 _0524_
*544 _0525_
*545 _0526_
*546 _0527_
*547 _0528_
*548 _0529_
*549 _0530_
*550 _0531_
*551 _0532_
*552 _0533_
*553 _0534_
*554 _0535_
*555 _0536_
*556 _0537_
*557 _0538_
*558 _0539_
*559 _0540_
*560 _0541_
*561 carryFlag
*562 clknet_0_io_in[0]
*563 clknet_4_0_0_io_in[0]
*564 clknet_4_10_0_io_in[0]
*565 clknet_4_11_0_io_in[0]
*566 clknet_4_12_0_io_in[0]
*567 clknet_4_13_0_io_in[0]
*568 clknet_4_14_0_io_in[0]
*569 clknet_4_15_0_io_in[0]
*570 clknet_4_1_0_io_in[0]
*571 clknet_4_2_0_io_in[0]
*572 clknet_4_3_0_io_in[0]
*573 clknet_4_4_0_io_in[0]
*574 clknet_4_5_0_io_in[0]
*575 clknet_4_6_0_io_in[0]
*576 clknet_4_7_0_io_in[0]
*577 clknet_4_8_0_io_in[0]
*578 clknet_4_9_0_io_in[0]
*579 internalRAM\[0\]\[0\]
*580 internalRAM\[0\]\[1\]
*581 internalRAM\[0\]\[2\]
*582 internalRAM\[0\]\[3\]
*583 internalRAM\[0\]\[4\]
*584 internalRAM\[0\]\[5\]
*585 internalRAM\[0\]\[6\]
*586 internalRAM\[0\]\[7\]
*587 internalRAM\[1\]\[0\]
*588 internalRAM\[1\]\[1\]
*589 internalRAM\[1\]\[2\]
*590 internalRAM\[1\]\[3\]
*591 internalRAM\[1\]\[4\]
*592 internalRAM\[1\]\[5\]
*593 internalRAM\[1\]\[6\]
*594 internalRAM\[1\]\[7\]
*595 internalRAM\[2\]\[0\]
*596 internalRAM\[2\]\[1\]
*597 internalRAM\[2\]\[2\]
*598 internalRAM\[2\]\[3\]
*599 internalRAM\[2\]\[4\]
*600 internalRAM\[2\]\[5\]
*601 internalRAM\[2\]\[6\]
*602 internalRAM\[2\]\[7\]
*603 internalRAM\[3\]\[0\]
*604 internalRAM\[3\]\[1\]
*605 internalRAM\[3\]\[2\]
*606 internalRAM\[3\]\[3\]
*607 internalRAM\[3\]\[4\]
*608 internalRAM\[3\]\[5\]
*609 internalRAM\[3\]\[6\]
*610 internalRAM\[3\]\[7\]
*611 internalRAM\[4\]\[0\]
*612 internalRAM\[4\]\[1\]
*613 internalRAM\[4\]\[2\]
*614 internalRAM\[4\]\[3\]
*615 internalRAM\[4\]\[4\]
*616 internalRAM\[4\]\[5\]
*617 internalRAM\[4\]\[6\]
*618 internalRAM\[4\]\[7\]
*619 internalRAM\[5\]\[0\]
*620 internalRAM\[5\]\[1\]
*621 internalRAM\[5\]\[2\]
*622 internalRAM\[5\]\[3\]
*623 internalRAM\[5\]\[4\]
*624 internalRAM\[5\]\[5\]
*625 internalRAM\[5\]\[6\]
*626 internalRAM\[5\]\[7\]
*627 internalRAM\[6\]\[0\]
*628 internalRAM\[6\]\[1\]
*629 internalRAM\[6\]\[2\]
*630 internalRAM\[6\]\[3\]
*631 internalRAM\[6\]\[4\]
*632 internalRAM\[6\]\[5\]
*633 internalRAM\[6\]\[6\]
*634 internalRAM\[6\]\[7\]
*635 internalRAM\[7\]\[0\]
*636 internalRAM\[7\]\[1\]
*637 internalRAM\[7\]\[2\]
*638 internalRAM\[7\]\[3\]
*639 internalRAM\[7\]\[4\]
*640 internalRAM\[7\]\[5\]
*641 internalRAM\[7\]\[6\]
*642 internalRAM\[7\]\[7\]
*643 internalRAM\[8\]\[0\]
*644 internalRAM\[8\]\[1\]
*645 internalRAM\[8\]\[2\]
*646 internalRAM\[8\]\[3\]
*647 internalRAM\[8\]\[4\]
*648 internalRAM\[8\]\[5\]
*649 internalRAM\[8\]\[6\]
*650 internalRAM\[8\]\[7\]
*651 net1
*652 net2
*653 net3
*654 net4
*655 net5
*656 net6
*657 net7
*658 outputMux\.sel
*659 pcOneIncAdder\.adder0\.a
*660 pcOneIncAdder\.adder1\.a
*661 pcOneIncAdder\.adder2\.a
*662 pcOneIncAdder\.adder3\.a
*663 pcOneIncAdder\.adder4\.a
*664 pcOneIncAdder\.adder5\.a
*665 pcOneIncAdder\.adder6\.a
*666 pcOneIncAdder\.adder7\.a
*667 pcR3IncAdder\.adder0\.b
*668 pcR3IncAdder\.adder1\.b
*669 pcR3IncAdder\.adder2\.b
*670 pcR3IncAdder\.adder3\.b
*671 pcR3IncAdder\.adder4\.b
*672 pcR3IncAdder\.adder5\.b
*673 pcR3IncAdder\.adder6\.b
*674 pcR3IncAdder\.adder7\.b
*675 r0Mux\.dIn0\[0\]
*676 r0Mux\.dIn0\[1\]
*677 r0Mux\.dIn0\[2\]
*678 r0Mux\.dIn0\[3\]
*679 r0Mux\.dIn0\[4\]
*680 r0Mux\.dIn0\[5\]
*681 r0Mux\.dIn0\[6\]
*682 r0Mux\.dIn0\[7\]
*683 r1Mux\.dIn0\[0\]
*684 r1Mux\.dIn0\[1\]
*685 r1Mux\.dIn0\[2\]
*686 r1Mux\.dIn0\[3\]
*687 r1Mux\.dIn0\[4\]
*688 r1Mux\.dIn0\[5\]
*689 r1Mux\.dIn0\[6\]
*690 r1Mux\.dIn0\[7\]
*691 r2Mux\.dIn0\[0\]
*692 r2Mux\.dIn0\[1\]
*693 r2Mux\.dIn0\[2\]
*694 r2Mux\.dIn0\[3\]
*695 r2Mux\.dIn0\[4\]
*696 r2Mux\.dIn0\[5\]
*697 r2Mux\.dIn0\[6\]
*698 r2Mux\.dIn0\[7\]
*699 ANTENNA_1
*700 ANTENNA_10
*701 ANTENNA_11
*702 ANTENNA_12
*703 ANTENNA_13
*704 ANTENNA_14
*705 ANTENNA_15
*706 ANTENNA_16
*707 ANTENNA_17
*708 ANTENNA_18
*709 ANTENNA_19
*710 ANTENNA_2
*711 ANTENNA_20
*712 ANTENNA_21
*713 ANTENNA_22
*714 ANTENNA_23
*715 ANTENNA_24
*716 ANTENNA_25
*717 ANTENNA_26
*718 ANTENNA_27
*719 ANTENNA_28
*720 ANTENNA_29
*721 ANTENNA_3
*722 ANTENNA_30
*723 ANTENNA_31
*724 ANTENNA_32
*725 ANTENNA_33
*726 ANTENNA_4
*727 ANTENNA_5
*728 ANTENNA_6
*729 ANTENNA_7
*730 ANTENNA_8
*731 ANTENNA_9
*732 FILLER_0_109
*733 FILLER_0_113
*734 FILLER_0_118
*735 FILLER_0_130
*736 FILLER_0_138
*737 FILLER_0_141
*738 FILLER_0_159
*739 FILLER_0_167
*740 FILLER_0_169
*741 FILLER_0_181
*742 FILLER_0_189
*743 FILLER_0_19
*744 FILLER_0_194
*745 FILLER_0_197
*746 FILLER_0_209
*747 FILLER_0_216
*748 FILLER_0_225
*749 FILLER_0_237
*750 FILLER_0_249
*751 FILLER_0_253
*752 FILLER_0_265
*753 FILLER_0_27
*754 FILLER_0_277
*755 FILLER_0_281
*756 FILLER_0_29
*757 FILLER_0_293
*758 FILLER_0_3
*759 FILLER_0_40
*760 FILLER_0_53
*761 FILLER_0_57
*762 FILLER_0_69
*763 FILLER_0_81
*764 FILLER_0_85
*765 FILLER_0_97
*766 FILLER_10_108
*767 FILLER_10_120
*768 FILLER_10_132
*769 FILLER_10_141
*770 FILLER_10_149
*771 FILLER_10_156
*772 FILLER_10_168
*773 FILLER_10_180
*774 FILLER_10_191
*775 FILLER_10_195
*776 FILLER_10_197
*777 FILLER_10_201
*778 FILLER_10_206
*779 FILLER_10_218
*780 FILLER_10_226
*781 FILLER_10_238
*782 FILLER_10_247
*783 FILLER_10_251
*784 FILLER_10_253
*785 FILLER_10_257
*786 FILLER_10_26
*787 FILLER_10_265
*788 FILLER_10_269
*789 FILLER_10_277
*790 FILLER_10_284
*791 FILLER_10_29
*792 FILLER_10_296
*793 FILLER_10_3
*794 FILLER_10_47
*795 FILLER_10_60
*796 FILLER_10_69
*797 FILLER_10_73
*798 FILLER_10_82
*799 FILLER_10_85
*800 FILLER_10_9
*801 FILLER_10_96
*802 FILLER_11_108
*803 FILLER_11_11
*804 FILLER_11_113
*805 FILLER_11_126
*806 FILLER_11_138
*807 FILLER_11_150
*808 FILLER_11_156
*809 FILLER_11_166
*810 FILLER_11_169
*811 FILLER_11_188
*812 FILLER_11_19
*813 FILLER_11_210
*814 FILLER_11_222
*815 FILLER_11_225
*816 FILLER_11_233
*817 FILLER_11_238
*818 FILLER_11_251
*819 FILLER_11_258
*820 FILLER_11_272
*821 FILLER_11_281
*822 FILLER_11_288
*823 FILLER_11_296
*824 FILLER_11_3
*825 FILLER_11_39
*826 FILLER_11_52
*827 FILLER_11_57
*828 FILLER_11_69
*829 FILLER_11_82
*830 FILLER_11_91
*831 FILLER_12_108
*832 FILLER_12_120
*833 FILLER_12_128
*834 FILLER_12_137
*835 FILLER_12_141
*836 FILLER_12_151
*837 FILLER_12_163
*838 FILLER_12_171
*839 FILLER_12_176
*840 FILLER_12_184
*841 FILLER_12_192
*842 FILLER_12_197
*843 FILLER_12_201
*844 FILLER_12_209
*845 FILLER_12_21
*846 FILLER_12_234
*847 FILLER_12_244
*848 FILLER_12_253
*849 FILLER_12_262
*850 FILLER_12_27
*851 FILLER_12_275
*852 FILLER_12_29
*853 FILLER_12_290
*854 FILLER_12_297
*855 FILLER_12_3
*856 FILLER_12_34
*857 FILLER_12_54
*858 FILLER_12_74
*859 FILLER_12_78
*860 FILLER_12_82
*861 FILLER_12_85
*862 FILLER_12_98
*863 FILLER_13_102
*864 FILLER_13_110
*865 FILLER_13_113
*866 FILLER_13_119
*867 FILLER_13_136
*868 FILLER_13_144
*869 FILLER_13_154
*870 FILLER_13_166
*871 FILLER_13_169
*872 FILLER_13_181
*873 FILLER_13_193
*874 FILLER_13_201
*875 FILLER_13_210
*876 FILLER_13_222
*877 FILLER_13_225
*878 FILLER_13_24
*879 FILLER_13_240
*880 FILLER_13_249
*881 FILLER_13_256
*882 FILLER_13_267
*883 FILLER_13_277
*884 FILLER_13_28
*885 FILLER_13_281
*886 FILLER_13_291
*887 FILLER_13_3
*888 FILLER_13_38
*889 FILLER_13_44
*890 FILLER_13_54
*891 FILLER_13_57
*892 FILLER_13_7
*893 FILLER_13_75
*894 FILLER_13_85
*895 FILLER_14_102
*896 FILLER_14_106
*897 FILLER_14_116
*898 FILLER_14_138
*899 FILLER_14_141
*900 FILLER_14_155
*901 FILLER_14_163
*902 FILLER_14_174
*903 FILLER_14_186
*904 FILLER_14_194
*905 FILLER_14_197
*906 FILLER_14_21
*907 FILLER_14_218
*908 FILLER_14_228
*909 FILLER_14_238
*910 FILLER_14_246
*911 FILLER_14_253
*912 FILLER_14_263
*913 FILLER_14_27
*914 FILLER_14_275
*915 FILLER_14_286
*916 FILLER_14_29
*917 FILLER_14_297
*918 FILLER_14_3
*919 FILLER_14_42
*920 FILLER_14_55
*921 FILLER_14_59
*922 FILLER_14_78
*923 FILLER_14_85
*924 FILLER_14_90
*925 FILLER_15_111
*926 FILLER_15_113
*927 FILLER_15_125
*928 FILLER_15_137
*929 FILLER_15_147
*930 FILLER_15_164
*931 FILLER_15_169
*932 FILLER_15_181
*933 FILLER_15_185
*934 FILLER_15_204
*935 FILLER_15_21
*936 FILLER_15_213
*937 FILLER_15_220
*938 FILLER_15_225
*939 FILLER_15_232
*940 FILLER_15_240
*941 FILLER_15_246
*942 FILLER_15_25
*943 FILLER_15_258
*944 FILLER_15_266
*945 FILLER_15_275
*946 FILLER_15_279
*947 FILLER_15_281
*948 FILLER_15_288
*949 FILLER_15_295
*950 FILLER_15_3
*951 FILLER_15_37
*952 FILLER_15_54
*953 FILLER_15_57
*954 FILLER_15_75
*955 FILLER_15_81
*956 FILLER_15_88
*957 FILLER_15_99
*958 FILLER_16_102
*959 FILLER_16_114
*960 FILLER_16_120
*961 FILLER_16_132
*962 FILLER_16_141
*963 FILLER_16_153
*964 FILLER_16_165
*965 FILLER_16_169
*966 FILLER_16_176
*967 FILLER_16_184
*968 FILLER_16_194
*969 FILLER_16_197
*970 FILLER_16_21
*971 FILLER_16_227
*972 FILLER_16_235
*973 FILLER_16_243
*974 FILLER_16_250
*975 FILLER_16_253
*976 FILLER_16_262
*977 FILLER_16_27
*978 FILLER_16_273
*979 FILLER_16_277
*980 FILLER_16_287
*981 FILLER_16_29
*982 FILLER_16_296
*983 FILLER_16_3
*984 FILLER_16_51
*985 FILLER_16_66
*986 FILLER_16_79
*987 FILLER_16_83
*988 FILLER_16_85
*989 FILLER_16_90
*990 FILLER_17_110
*991 FILLER_17_113
*992 FILLER_17_131
*993 FILLER_17_143
*994 FILLER_17_151
*995 FILLER_17_163
*996 FILLER_17_167
*997 FILLER_17_169
*998 FILLER_17_177
*999 FILLER_17_184
*1000 FILLER_17_188
*1001 FILLER_17_210
*1002 FILLER_17_218
*1003 FILLER_17_22
*1004 FILLER_17_222
*1005 FILLER_17_225
*1006 FILLER_17_229
*1007 FILLER_17_248
*1008 FILLER_17_256
*1009 FILLER_17_26
*1010 FILLER_17_276
*1011 FILLER_17_281
*1012 FILLER_17_289
*1013 FILLER_17_296
*1014 FILLER_17_3
*1015 FILLER_17_30
*1016 FILLER_17_50
*1017 FILLER_17_57
*1018 FILLER_17_61
*1019 FILLER_17_71
*1020 FILLER_17_78
*1021 FILLER_17_86
*1022 FILLER_17_98
*1023 FILLER_18_100
*1024 FILLER_18_116
*1025 FILLER_18_128
*1026 FILLER_18_141
*1027 FILLER_18_149
*1028 FILLER_18_159
*1029 FILLER_18_171
*1030 FILLER_18_180
*1031 FILLER_18_186
*1032 FILLER_18_191
*1033 FILLER_18_195
*1034 FILLER_18_197
*1035 FILLER_18_205
*1036 FILLER_18_21
*1037 FILLER_18_219
*1038 FILLER_18_227
*1039 FILLER_18_235
*1040 FILLER_18_248
*1041 FILLER_18_253
*1042 FILLER_18_261
*1043 FILLER_18_269
*1044 FILLER_18_27
*1045 FILLER_18_277
*1046 FILLER_18_288
*1047 FILLER_18_29
*1048 FILLER_18_292
*1049 FILLER_18_296
*1050 FILLER_18_3
*1051 FILLER_18_47
*1052 FILLER_18_62
*1053 FILLER_18_75
*1054 FILLER_18_82
*1055 FILLER_18_85
*1056 FILLER_19_110
*1057 FILLER_19_113
*1058 FILLER_19_121
*1059 FILLER_19_134
*1060 FILLER_19_146
*1061 FILLER_19_154
*1062 FILLER_19_164
*1063 FILLER_19_169
*1064 FILLER_19_176
*1065 FILLER_19_180
*1066 FILLER_19_190
*1067 FILLER_19_198
*1068 FILLER_19_206
*1069 FILLER_19_218
*1070 FILLER_19_22
*1071 FILLER_19_225
*1072 FILLER_19_234
*1073 FILLER_19_241
*1074 FILLER_19_251
*1075 FILLER_19_263
*1076 FILLER_19_274
*1077 FILLER_19_281
*1078 FILLER_19_288
*1079 FILLER_19_295
*1080 FILLER_19_3
*1081 FILLER_19_42
*1082 FILLER_19_49
*1083 FILLER_19_55
*1084 FILLER_19_57
*1085 FILLER_19_68
*1086 FILLER_19_74
*1087 FILLER_19_84
*1088 FILLER_19_96
*1089 FILLER_1_110
*1090 FILLER_1_113
*1091 FILLER_1_123
*1092 FILLER_1_13
*1093 FILLER_1_130
*1094 FILLER_1_136
*1095 FILLER_1_143
*1096 FILLER_1_157
*1097 FILLER_1_164
*1098 FILLER_1_169
*1099 FILLER_1_175
*1100 FILLER_1_187
*1101 FILLER_1_196
*1102 FILLER_1_204
*1103 FILLER_1_211
*1104 FILLER_1_219
*1105 FILLER_1_223
*1106 FILLER_1_225
*1107 FILLER_1_235
*1108 FILLER_1_242
*1109 FILLER_1_254
*1110 FILLER_1_266
*1111 FILLER_1_278
*1112 FILLER_1_281
*1113 FILLER_1_293
*1114 FILLER_1_3
*1115 FILLER_1_33
*1116 FILLER_1_51
*1117 FILLER_1_55
*1118 FILLER_1_57
*1119 FILLER_1_68
*1120 FILLER_1_76
*1121 FILLER_1_82
*1122 FILLER_1_9
*1123 FILLER_1_94
*1124 FILLER_20_103
*1125 FILLER_20_113
*1126 FILLER_20_125
*1127 FILLER_20_137
*1128 FILLER_20_141
*1129 FILLER_20_152
*1130 FILLER_20_160
*1131 FILLER_20_169
*1132 FILLER_20_175
*1133 FILLER_20_184
*1134 FILLER_20_197
*1135 FILLER_20_202
*1136 FILLER_20_21
*1137 FILLER_20_214
*1138 FILLER_20_224
*1139 FILLER_20_232
*1140 FILLER_20_240
*1141 FILLER_20_247
*1142 FILLER_20_251
*1143 FILLER_20_253
*1144 FILLER_20_263
*1145 FILLER_20_27
*1146 FILLER_20_275
*1147 FILLER_20_284
*1148 FILLER_20_29
*1149 FILLER_20_296
*1150 FILLER_20_3
*1151 FILLER_20_42
*1152 FILLER_20_55
*1153 FILLER_20_69
*1154 FILLER_20_76
*1155 FILLER_20_85
*1156 FILLER_20_90
*1157 FILLER_20_94
*1158 FILLER_21_103
*1159 FILLER_21_111
*1160 FILLER_21_113
*1161 FILLER_21_123
*1162 FILLER_21_129
*1163 FILLER_21_138
*1164 FILLER_21_150
*1165 FILLER_21_159
*1166 FILLER_21_167
*1167 FILLER_21_169
*1168 FILLER_21_179
*1169 FILLER_21_191
*1170 FILLER_21_203
*1171 FILLER_21_21
*1172 FILLER_21_215
*1173 FILLER_21_223
*1174 FILLER_21_225
*1175 FILLER_21_231
*1176 FILLER_21_239
*1177 FILLER_21_247
*1178 FILLER_21_258
*1179 FILLER_21_264
*1180 FILLER_21_275
*1181 FILLER_21_279
*1182 FILLER_21_281
*1183 FILLER_21_293
*1184 FILLER_21_3
*1185 FILLER_21_41
*1186 FILLER_21_54
*1187 FILLER_21_57
*1188 FILLER_21_65
*1189 FILLER_21_72
*1190 FILLER_21_80
*1191 FILLER_21_84
*1192 FILLER_21_96
*1193 FILLER_22_103
*1194 FILLER_22_115
*1195 FILLER_22_127
*1196 FILLER_22_138
*1197 FILLER_22_141
*1198 FILLER_22_154
*1199 FILLER_22_167
*1200 FILLER_22_176
*1201 FILLER_22_188
*1202 FILLER_22_197
*1203 FILLER_22_207
*1204 FILLER_22_21
*1205 FILLER_22_211
*1206 FILLER_22_218
*1207 FILLER_22_226
*1208 FILLER_22_232
*1209 FILLER_22_240
*1210 FILLER_22_250
*1211 FILLER_22_253
*1212 FILLER_22_260
*1213 FILLER_22_267
*1214 FILLER_22_27
*1215 FILLER_22_279
*1216 FILLER_22_287
*1217 FILLER_22_29
*1218 FILLER_22_297
*1219 FILLER_22_3
*1220 FILLER_22_34
*1221 FILLER_22_53
*1222 FILLER_22_61
*1223 FILLER_22_72
*1224 FILLER_22_79
*1225 FILLER_22_83
*1226 FILLER_22_85
*1227 FILLER_22_90
*1228 FILLER_23_110
*1229 FILLER_23_113
*1230 FILLER_23_125
*1231 FILLER_23_137
*1232 FILLER_23_155
*1233 FILLER_23_159
*1234 FILLER_23_165
*1235 FILLER_23_169
*1236 FILLER_23_177
*1237 FILLER_23_183
*1238 FILLER_23_195
*1239 FILLER_23_199
*1240 FILLER_23_22
*1241 FILLER_23_220
*1242 FILLER_23_225
*1243 FILLER_23_237
*1244 FILLER_23_245
*1245 FILLER_23_252
*1246 FILLER_23_267
*1247 FILLER_23_279
*1248 FILLER_23_281
*1249 FILLER_23_287
*1250 FILLER_23_3
*1251 FILLER_23_33
*1252 FILLER_23_53
*1253 FILLER_23_57
*1254 FILLER_23_67
*1255 FILLER_23_74
*1256 FILLER_23_86
*1257 FILLER_23_98
*1258 FILLER_24_103
*1259 FILLER_24_118
*1260 FILLER_24_130
*1261 FILLER_24_138
*1262 FILLER_24_141
*1263 FILLER_24_153
*1264 FILLER_24_165
*1265 FILLER_24_177
*1266 FILLER_24_193
*1267 FILLER_24_197
*1268 FILLER_24_206
*1269 FILLER_24_21
*1270 FILLER_24_216
*1271 FILLER_24_224
*1272 FILLER_24_231
*1273 FILLER_24_235
*1274 FILLER_24_244
*1275 FILLER_24_253
*1276 FILLER_24_264
*1277 FILLER_24_27
*1278 FILLER_24_273
*1279 FILLER_24_285
*1280 FILLER_24_29
*1281 FILLER_24_297
*1282 FILLER_24_3
*1283 FILLER_24_42
*1284 FILLER_24_66
*1285 FILLER_24_79
*1286 FILLER_24_83
*1287 FILLER_24_85
*1288 FILLER_24_90
*1289 FILLER_25_105
*1290 FILLER_25_11
*1291 FILLER_25_111
*1292 FILLER_25_113
*1293 FILLER_25_121
*1294 FILLER_25_129
*1295 FILLER_25_136
*1296 FILLER_25_148
*1297 FILLER_25_160
*1298 FILLER_25_169
*1299 FILLER_25_181
*1300 FILLER_25_193
*1301 FILLER_25_199
*1302 FILLER_25_207
*1303 FILLER_25_216
*1304 FILLER_25_225
*1305 FILLER_25_234
*1306 FILLER_25_246
*1307 FILLER_25_258
*1308 FILLER_25_264
*1309 FILLER_25_271
*1310 FILLER_25_279
*1311 FILLER_25_281
*1312 FILLER_25_293
*1313 FILLER_25_3
*1314 FILLER_25_33
*1315 FILLER_25_37
*1316 FILLER_25_54
*1317 FILLER_25_57
*1318 FILLER_25_62
*1319 FILLER_25_66
*1320 FILLER_25_75
*1321 FILLER_25_83
*1322 FILLER_25_93
*1323 FILLER_26_108
*1324 FILLER_26_120
*1325 FILLER_26_128
*1326 FILLER_26_138
*1327 FILLER_26_141
*1328 FILLER_26_153
*1329 FILLER_26_165
*1330 FILLER_26_177
*1331 FILLER_26_189
*1332 FILLER_26_195
*1333 FILLER_26_197
*1334 FILLER_26_203
*1335 FILLER_26_21
*1336 FILLER_26_215
*1337 FILLER_26_223
*1338 FILLER_26_232
*1339 FILLER_26_244
*1340 FILLER_26_250
*1341 FILLER_26_253
*1342 FILLER_26_262
*1343 FILLER_26_27
*1344 FILLER_26_273
*1345 FILLER_26_285
*1346 FILLER_26_29
*1347 FILLER_26_297
*1348 FILLER_26_3
*1349 FILLER_26_48
*1350 FILLER_26_55
*1351 FILLER_26_70
*1352 FILLER_26_82
*1353 FILLER_26_85
*1354 FILLER_26_96
*1355 FILLER_27_110
*1356 FILLER_27_113
*1357 FILLER_27_127
*1358 FILLER_27_139
*1359 FILLER_27_151
*1360 FILLER_27_163
*1361 FILLER_27_167
*1362 FILLER_27_169
*1363 FILLER_27_181
*1364 FILLER_27_193
*1365 FILLER_27_197
*1366 FILLER_27_201
*1367 FILLER_27_212
*1368 FILLER_27_220
*1369 FILLER_27_225
*1370 FILLER_27_237
*1371 FILLER_27_245
*1372 FILLER_27_255
*1373 FILLER_27_263
*1374 FILLER_27_271
*1375 FILLER_27_279
*1376 FILLER_27_281
*1377 FILLER_27_293
*1378 FILLER_27_3
*1379 FILLER_27_31
*1380 FILLER_27_52
*1381 FILLER_27_57
*1382 FILLER_27_69
*1383 FILLER_27_75
*1384 FILLER_27_84
*1385 FILLER_27_9
*1386 FILLER_27_97
*1387 FILLER_28_101
*1388 FILLER_28_113
*1389 FILLER_28_125
*1390 FILLER_28_137
*1391 FILLER_28_141
*1392 FILLER_28_153
*1393 FILLER_28_165
*1394 FILLER_28_177
*1395 FILLER_28_190
*1396 FILLER_28_197
*1397 FILLER_28_209
*1398 FILLER_28_221
*1399 FILLER_28_231
*1400 FILLER_28_245
*1401 FILLER_28_251
*1402 FILLER_28_253
*1403 FILLER_28_26
*1404 FILLER_28_265
*1405 FILLER_28_278
*1406 FILLER_28_29
*1407 FILLER_28_290
*1408 FILLER_28_298
*1409 FILLER_28_3
*1410 FILLER_28_61
*1411 FILLER_28_81
*1412 FILLER_28_85
*1413 FILLER_28_9
*1414 FILLER_28_93
*1415 FILLER_28_97
*1416 FILLER_29_102
*1417 FILLER_29_107
*1418 FILLER_29_111
*1419 FILLER_29_113
*1420 FILLER_29_117
*1421 FILLER_29_122
*1422 FILLER_29_134
*1423 FILLER_29_146
*1424 FILLER_29_158
*1425 FILLER_29_166
*1426 FILLER_29_169
*1427 FILLER_29_181
*1428 FILLER_29_189
*1429 FILLER_29_198
*1430 FILLER_29_210
*1431 FILLER_29_222
*1432 FILLER_29_225
*1433 FILLER_29_23
*1434 FILLER_29_232
*1435 FILLER_29_240
*1436 FILLER_29_248
*1437 FILLER_29_260
*1438 FILLER_29_267
*1439 FILLER_29_27
*1440 FILLER_29_277
*1441 FILLER_29_281
*1442 FILLER_29_293
*1443 FILLER_29_3
*1444 FILLER_29_49
*1445 FILLER_29_55
*1446 FILLER_29_57
*1447 FILLER_29_75
*1448 FILLER_29_82
*1449 FILLER_29_94
*1450 FILLER_2_111
*1451 FILLER_2_124
*1452 FILLER_2_136
*1453 FILLER_2_141
*1454 FILLER_2_153
*1455 FILLER_2_167
*1456 FILLER_2_179
*1457 FILLER_2_191
*1458 FILLER_2_195
*1459 FILLER_2_197
*1460 FILLER_2_205
*1461 FILLER_2_21
*1462 FILLER_2_211
*1463 FILLER_2_223
*1464 FILLER_2_233
*1465 FILLER_2_245
*1466 FILLER_2_251
*1467 FILLER_2_253
*1468 FILLER_2_265
*1469 FILLER_2_27
*1470 FILLER_2_277
*1471 FILLER_2_289
*1472 FILLER_2_29
*1473 FILLER_2_297
*1474 FILLER_2_3
*1475 FILLER_2_47
*1476 FILLER_2_61
*1477 FILLER_2_78
*1478 FILLER_2_85
*1479 FILLER_2_97
*1480 FILLER_30_104
*1481 FILLER_30_112
*1482 FILLER_30_123
*1483 FILLER_30_133
*1484 FILLER_30_139
*1485 FILLER_30_141
*1486 FILLER_30_153
*1487 FILLER_30_165
*1488 FILLER_30_177
*1489 FILLER_30_189
*1490 FILLER_30_195
*1491 FILLER_30_197
*1492 FILLER_30_209
*1493 FILLER_30_21
*1494 FILLER_30_221
*1495 FILLER_30_233
*1496 FILLER_30_244
*1497 FILLER_30_253
*1498 FILLER_30_265
*1499 FILLER_30_27
*1500 FILLER_30_277
*1501 FILLER_30_289
*1502 FILLER_30_29
*1503 FILLER_30_297
*1504 FILLER_30_3
*1505 FILLER_30_41
*1506 FILLER_30_68
*1507 FILLER_30_82
*1508 FILLER_30_85
*1509 FILLER_30_91
*1510 FILLER_31_107
*1511 FILLER_31_111
*1512 FILLER_31_113
*1513 FILLER_31_125
*1514 FILLER_31_137
*1515 FILLER_31_149
*1516 FILLER_31_161
*1517 FILLER_31_167
*1518 FILLER_31_169
*1519 FILLER_31_181
*1520 FILLER_31_193
*1521 FILLER_31_205
*1522 FILLER_31_21
*1523 FILLER_31_217
*1524 FILLER_31_223
*1525 FILLER_31_225
*1526 FILLER_31_237
*1527 FILLER_31_259
*1528 FILLER_31_271
*1529 FILLER_31_279
*1530 FILLER_31_281
*1531 FILLER_31_293
*1532 FILLER_31_3
*1533 FILLER_31_36
*1534 FILLER_31_46
*1535 FILLER_31_54
*1536 FILLER_31_57
*1537 FILLER_31_65
*1538 FILLER_31_71
*1539 FILLER_31_77
*1540 FILLER_31_87
*1541 FILLER_31_94
*1542 FILLER_32_104
*1543 FILLER_32_115
*1544 FILLER_32_119
*1545 FILLER_32_123
*1546 FILLER_32_130
*1547 FILLER_32_138
*1548 FILLER_32_141
*1549 FILLER_32_153
*1550 FILLER_32_165
*1551 FILLER_32_177
*1552 FILLER_32_189
*1553 FILLER_32_195
*1554 FILLER_32_197
*1555 FILLER_32_209
*1556 FILLER_32_21
*1557 FILLER_32_223
*1558 FILLER_32_235
*1559 FILLER_32_247
*1560 FILLER_32_251
*1561 FILLER_32_253
*1562 FILLER_32_265
*1563 FILLER_32_27
*1564 FILLER_32_277
*1565 FILLER_32_289
*1566 FILLER_32_29
*1567 FILLER_32_297
*1568 FILLER_32_3
*1569 FILLER_32_35
*1570 FILLER_32_47
*1571 FILLER_32_55
*1572 FILLER_32_72
*1573 FILLER_32_85
*1574 FILLER_32_96
*1575 FILLER_33_100
*1576 FILLER_33_107
*1577 FILLER_33_111
*1578 FILLER_33_113
*1579 FILLER_33_119
*1580 FILLER_33_125
*1581 FILLER_33_141
*1582 FILLER_33_153
*1583 FILLER_33_165
*1584 FILLER_33_169
*1585 FILLER_33_177
*1586 FILLER_33_189
*1587 FILLER_33_201
*1588 FILLER_33_213
*1589 FILLER_33_221
*1590 FILLER_33_225
*1591 FILLER_33_234
*1592 FILLER_33_241
*1593 FILLER_33_253
*1594 FILLER_33_265
*1595 FILLER_33_27
*1596 FILLER_33_277
*1597 FILLER_33_281
*1598 FILLER_33_293
*1599 FILLER_33_3
*1600 FILLER_33_34
*1601 FILLER_33_42
*1602 FILLER_33_47
*1603 FILLER_33_55
*1604 FILLER_33_57
*1605 FILLER_33_75
*1606 FILLER_33_92
*1607 FILLER_34_102
*1608 FILLER_34_106
*1609 FILLER_34_110
*1610 FILLER_34_117
*1611 FILLER_34_138
*1612 FILLER_34_141
*1613 FILLER_34_153
*1614 FILLER_34_158
*1615 FILLER_34_170
*1616 FILLER_34_182
*1617 FILLER_34_190
*1618 FILLER_34_194
*1619 FILLER_34_197
*1620 FILLER_34_207
*1621 FILLER_34_215
*1622 FILLER_34_22
*1623 FILLER_34_225
*1624 FILLER_34_243
*1625 FILLER_34_251
*1626 FILLER_34_253
*1627 FILLER_34_265
*1628 FILLER_34_277
*1629 FILLER_34_289
*1630 FILLER_34_29
*1631 FILLER_34_297
*1632 FILLER_34_3
*1633 FILLER_34_42
*1634 FILLER_34_50
*1635 FILLER_34_60
*1636 FILLER_34_71
*1637 FILLER_34_77
*1638 FILLER_34_82
*1639 FILLER_34_85
*1640 FILLER_35_100
*1641 FILLER_35_110
*1642 FILLER_35_113
*1643 FILLER_35_118
*1644 FILLER_35_130
*1645 FILLER_35_142
*1646 FILLER_35_154
*1647 FILLER_35_166
*1648 FILLER_35_169
*1649 FILLER_35_181
*1650 FILLER_35_193
*1651 FILLER_35_202
*1652 FILLER_35_21
*1653 FILLER_35_214
*1654 FILLER_35_222
*1655 FILLER_35_225
*1656 FILLER_35_237
*1657 FILLER_35_249
*1658 FILLER_35_261
*1659 FILLER_35_273
*1660 FILLER_35_279
*1661 FILLER_35_281
*1662 FILLER_35_293
*1663 FILLER_35_3
*1664 FILLER_35_35
*1665 FILLER_35_53
*1666 FILLER_35_57
*1667 FILLER_35_75
*1668 FILLER_35_83
*1669 FILLER_35_92
*1670 FILLER_36_101
*1671 FILLER_36_109
*1672 FILLER_36_117
*1673 FILLER_36_124
*1674 FILLER_36_136
*1675 FILLER_36_141
*1676 FILLER_36_153
*1677 FILLER_36_165
*1678 FILLER_36_173
*1679 FILLER_36_184
*1680 FILLER_36_197
*1681 FILLER_36_216
*1682 FILLER_36_228
*1683 FILLER_36_240
*1684 FILLER_36_25
*1685 FILLER_36_253
*1686 FILLER_36_265
*1687 FILLER_36_277
*1688 FILLER_36_289
*1689 FILLER_36_29
*1690 FILLER_36_297
*1691 FILLER_36_3
*1692 FILLER_36_48
*1693 FILLER_36_63
*1694 FILLER_36_76
*1695 FILLER_36_85
*1696 FILLER_36_92
*1697 FILLER_37_104
*1698 FILLER_37_113
*1699 FILLER_37_119
*1700 FILLER_37_129
*1701 FILLER_37_152
*1702 FILLER_37_164
*1703 FILLER_37_169
*1704 FILLER_37_181
*1705 FILLER_37_193
*1706 FILLER_37_205
*1707 FILLER_37_217
*1708 FILLER_37_223
*1709 FILLER_37_225
*1710 FILLER_37_237
*1711 FILLER_37_249
*1712 FILLER_37_26
*1713 FILLER_37_261
*1714 FILLER_37_273
*1715 FILLER_37_279
*1716 FILLER_37_281
*1717 FILLER_37_293