*SPEF "ieee 1481-1999"
*DESIGN "hpretl_tt03_temperature_sensor"
*DATE "11:11:11 Fri 11 11, 1111"
*VENDOR "OpenRCX"
*PROGRAM "Parallel Extraction"
*VERSION "1.0"
*DESIGN_FLOW "NAME_SCOPE LOCAL" "PIN_CAP NONE"
*DIVIDER /
*DELIMITER :
*BUS_DELIMITER []
*T_UNIT 1 NS
*C_UNIT 1 PF
*R_UNIT 1 OHM
*L_UNIT 1 HENRY

*NAME_MAP
*1 io_in[0]
*2 io_in[1]
*3 io_in[2]
*4 io_in[3]
*5 io_in[4]
*6 io_in[5]
*7 io_in[6]
*8 io_in[7]
*9 io_out[0]
*10 io_out[1]
*11 io_out[2]
*12 io_out[3]
*13 io_out[4]
*14 io_out[5]
*15 io_out[6]
*16 io_out[7]
*19 _0000_
*20 _0001_
*21 _0002_
*22 _0003_
*23 _0004_
*24 _0005_
*25 _0006_
*26 _0007_
*27 _0008_
*28 _0009_
*29 _0010_
*30 _0011_
*31 _0012_
*32 _0013_
*33 _0014_
*34 _0015_
*35 _0016_
*36 _0017_
*37 _0018_
*38 _0019_
*39 _0020_
*40 _0021_
*41 _0022_
*42 _0023_
*43 _0024_
*44 _0025_
*45 _0026_
*46 _0027_
*47 _0028_
*48 _0029_
*49 _0030_
*50 _0031_
*51 _0032_
*52 _0033_
*53 _0034_
*54 _0035_
*55 _0036_
*56 _0037_
*57 _0038_
*58 _0039_
*59 _0040_
*60 _0041_
*61 _0042_
*62 _0043_
*63 _0044_
*64 _0045_
*65 _0046_
*66 _0047_
*67 _0048_
*68 _0049_
*69 _0050_
*70 _0051_
*71 _0052_
*72 _0053_
*73 _0054_
*74 _0055_
*75 _0056_
*76 _0057_
*77 _0058_
*78 _0059_
*79 _0060_
*80 _0061_
*81 _0062_
*82 _0063_
*83 _0064_
*84 _0065_
*85 _0066_
*86 _0067_
*87 _0068_
*88 _0069_
*89 _0070_
*90 _0071_
*91 _0072_
*92 _0073_
*93 _0074_
*94 _0075_
*95 _0076_
*96 _0077_
*97 _0078_
*98 _0079_
*99 _0080_
*100 _0081_
*101 _0082_
*102 _0083_
*103 _0084_
*104 _0085_
*105 _0086_
*106 _0087_
*107 _0088_
*108 _0089_
*109 _0090_
*110 _0091_
*111 _0092_
*112 _0093_
*113 _0094_
*114 _0095_
*115 _0096_
*116 _0097_
*117 _0098_
*118 _0099_
*119 _0100_
*120 _0101_
*121 _0102_
*122 _0103_
*123 _0104_
*124 _0105_
*125 _0106_
*126 _0107_
*127 _0108_
*128 _0109_
*129 _0110_
*130 _0111_
*131 _0112_
*132 _0113_
*133 _0114_
*134 _0115_
*135 _0116_
*136 _0117_
*137 _0118_
*138 _0119_
*139 _0120_
*140 _0121_
*141 _0122_
*142 _0123_
*143 _0124_
*144 _0125_
*145 _0126_
*146 _0127_
*147 _0128_
*148 _0129_
*149 _0130_
*150 _0131_
*151 _0132_
*152 _0133_
*153 _0134_
*154 _0135_
*155 _0136_
*156 _0137_
*157 _0138_
*158 _0139_
*159 _0140_
*160 _0141_
*161 _0142_
*162 _0143_
*163 _0144_
*164 _0145_
*165 _0146_
*166 _0147_
*167 _0148_
*168 _0149_
*169 _0150_
*170 _0151_
*171 _0152_
*172 _0153_
*173 _0154_
*174 _0155_
*175 _0156_
*176 _0157_
*177 _0158_
*178 _0159_
*179 _0160_
*180 _0161_
*181 _0162_
*182 _0163_
*183 _0164_
*184 _0165_
*185 _0166_
*186 _0167_
*187 _0168_
*188 _0169_
*189 _0170_
*190 _0171_
*191 _0172_
*192 _0173_
*193 _0174_
*194 _0175_
*195 _0176_
*196 _0177_
*197 _0178_
*198 _0179_
*199 _0180_
*200 _0181_
*201 _0182_
*202 _0183_
*203 _0184_
*204 _0185_
*205 _0186_
*206 _0187_
*207 _0188_
*208 _0189_
*209 _0190_
*210 _0191_
*211 _0192_
*212 _0193_
*213 _0194_
*214 _0195_
*215 _0196_
*216 _0197_
*217 _0198_
*218 _0199_
*219 _0200_
*220 _0201_
*221 _0202_
*222 _0203_
*223 _0204_
*224 _0205_
*225 _0206_
*226 _0207_
*227 _0208_
*228 _0209_
*229 _0210_
*230 _0211_
*231 _0212_
*232 _0213_
*233 _0214_
*234 _0215_
*235 _0216_
*236 _0217_
*237 _0218_
*238 _0219_
*239 _0220_
*240 _0221_
*241 _0222_
*242 _0223_
*243 _0224_
*244 _0225_
*245 _0226_
*246 _0227_
*247 _0228_
*248 _0229_
*249 _0230_
*250 _0231_
*251 _0232_
*252 _0233_
*253 _0234_
*254 _0235_
*255 _0236_
*256 _0237_
*257 _0238_
*258 _0239_
*259 _0240_
*260 _0241_
*261 _0242_
*262 _0243_
*263 _0244_
*264 _0245_
*265 _0246_
*266 _0247_
*267 _0248_
*268 _0249_
*269 _0250_
*270 _0251_
*271 _0252_
*272 _0253_
*273 _0254_
*274 _0255_
*275 _0256_
*276 _0257_
*277 _0258_
*278 _0259_
*279 _0260_
*280 _0261_
*281 _0262_
*282 _0263_
*283 _0264_
*284 _0265_
*285 _0266_
*286 _0267_
*287 _0268_
*288 _0269_
*289 _0270_
*290 _0271_
*291 _0272_
*292 _0273_
*293 _0274_
*294 _0275_
*295 _0276_
*296 _0277_
*297 _0278_
*298 _0279_
*299 _0280_
*300 _0281_
*301 _0282_
*302 _0283_
*303 _0284_
*304 _0285_
*305 _0286_
*306 _0287_
*307 _0288_
*308 _0289_
*309 _0290_
*310 _0291_
*311 _0292_
*312 _0293_
*313 _0294_
*314 _0295_
*315 _0296_
*316 _0297_
*317 _0298_
*318 _0299_
*319 _0300_
*320 _0301_
*321 _0302_
*322 _0303_
*323 _0304_
*324 _0305_
*325 _0306_
*326 _0307_
*327 _0308_
*328 _0309_
*329 _0310_
*330 _0311_
*331 _0312_
*332 _0313_
*333 _0314_
*334 _0315_
*335 _0316_
*336 _0317_
*337 _0318_
*338 _0319_
*339 _0320_
*340 _0321_
*341 _0322_
*342 _0323_
*343 _0324_
*344 _0325_
*345 _0326_
*346 _0327_
*347 _0328_
*348 _0329_
*349 _0330_
*350 _0331_
*351 _0332_
*352 _0333_
*353 _0334_
*354 _0335_
*355 _0336_
*356 _0337_
*357 _0338_
*358 _0339_
*359 _0340_
*360 _0341_
*361 _0342_
*362 _0343_
*363 _0344_
*364 _0345_
*365 _0346_
*366 _0347_
*367 _0348_
*368 _0349_
*369 _0350_
*370 _0351_
*371 _0352_
*372 _0353_
*373 _0354_
*374 _0355_
*375 _0356_
*376 _0357_
*377 _0358_
*378 _0359_
*379 _0360_
*380 _0361_
*381 _0362_
*382 _0363_
*383 _0364_
*384 _0365_
*385 _0366_
*386 _0367_
*387 _0368_
*388 _0369_
*389 _0370_
*390 _0371_
*391 _0372_
*392 _0373_
*393 _0374_
*394 _0375_
*395 _0376_
*396 _0377_
*397 _0378_
*398 _0379_
*399 _0380_
*400 _0381_
*401 _0382_
*402 _0383_
*403 _0384_
*404 _0385_
*405 _0386_
*406 _0387_
*407 _0388_
*408 _0389_
*409 _0390_
*410 _0391_
*411 _0392_
*412 _0393_
*413 _0394_
*414 _0395_
*415 _0396_
*416 _0397_
*417 _0398_
*418 _0399_
*419 _0400_
*420 _0401_
*421 _0402_
*422 _0403_
*423 _0404_
*424 _0405_
*425 _0406_
*426 _0407_
*427 _0408_
*428 _0409_
*429 _0410_
*430 _0411_
*431 _0412_
*432 _0413_
*433 _0414_
*434 _0415_
*435 _0416_
*436 _0417_
*437 _0418_
*438 _0419_
*439 cal_lut\[0\]
*440 cal_lut\[100\]
*441 cal_lut\[101\]
*442 cal_lut\[102\]
*443 cal_lut\[103\]
*444 cal_lut\[104\]
*445 cal_lut\[105\]
*446 cal_lut\[106\]
*447 cal_lut\[107\]
*448 cal_lut\[108\]
*449 cal_lut\[109\]
*450 cal_lut\[10\]
*451 cal_lut\[110\]
*452 cal_lut\[111\]
*453 cal_lut\[112\]
*454 cal_lut\[113\]
*455 cal_lut\[114\]
*456 cal_lut\[115\]
*457 cal_lut\[116\]
*458 cal_lut\[117\]
*459 cal_lut\[118\]
*460 cal_lut\[119\]
*461 cal_lut\[11\]
*462 cal_lut\[120\]
*463 cal_lut\[121\]
*464 cal_lut\[122\]
*465 cal_lut\[123\]
*466 cal_lut\[124\]
*467 cal_lut\[125\]
*468 cal_lut\[126\]
*469 cal_lut\[127\]
*470 cal_lut\[128\]
*471 cal_lut\[129\]
*472 cal_lut\[12\]
*473 cal_lut\[130\]
*474 cal_lut\[131\]
*475 cal_lut\[132\]
*476 cal_lut\[133\]
*477 cal_lut\[134\]
*478 cal_lut\[135\]
*479 cal_lut\[136\]
*480 cal_lut\[137\]
*481 cal_lut\[138\]
*482 cal_lut\[139\]
*483 cal_lut\[13\]
*484 cal_lut\[140\]
*485 cal_lut\[141\]
*486 cal_lut\[142\]
*487 cal_lut\[143\]
*488 cal_lut\[144\]
*489 cal_lut\[145\]
*490 cal_lut\[146\]
*491 cal_lut\[147\]
*492 cal_lut\[148\]
*493 cal_lut\[149\]
*494 cal_lut\[14\]
*495 cal_lut\[150\]
*496 cal_lut\[151\]
*497 cal_lut\[152\]
*498 cal_lut\[153\]
*499 cal_lut\[154\]
*500 cal_lut\[155\]
*501 cal_lut\[156\]
*502 cal_lut\[157\]
*503 cal_lut\[158\]
*504 cal_lut\[159\]
*505 cal_lut\[15\]
*506 cal_lut\[160\]
*507 cal_lut\[161\]
*508 cal_lut\[162\]
*509 cal_lut\[163\]
*510 cal_lut\[164\]
*511 cal_lut\[165\]
*512 cal_lut\[166\]
*513 cal_lut\[167\]
*514 cal_lut\[168\]
*515 cal_lut\[169\]
*516 cal_lut\[16\]
*517 cal_lut\[170\]
*518 cal_lut\[171\]
*519 cal_lut\[172\]
*520 cal_lut\[173\]
*521 cal_lut\[174\]
*522 cal_lut\[175\]
*523 cal_lut\[176\]
*524 cal_lut\[177\]
*525 cal_lut\[178\]
*526 cal_lut\[179\]
*527 cal_lut\[17\]
*528 cal_lut\[180\]
*529 cal_lut\[181\]
*530 cal_lut\[182\]
*531 cal_lut\[183\]
*532 cal_lut\[184\]
*533 cal_lut\[185\]
*534 cal_lut\[186\]
*535 cal_lut\[187\]
*536 cal_lut\[188\]
*537 cal_lut\[189\]
*538 cal_lut\[18\]
*539 cal_lut\[190\]
*540 cal_lut\[191\]
*541 cal_lut\[19\]
*542 cal_lut\[1\]
*543 cal_lut\[20\]
*544 cal_lut\[21\]
*545 cal_lut\[22\]
*546 cal_lut\[23\]
*547 cal_lut\[24\]
*548 cal_lut\[25\]
*549 cal_lut\[26\]
*550 cal_lut\[27\]
*551 cal_lut\[28\]
*552 cal_lut\[29\]
*553 cal_lut\[2\]
*554 cal_lut\[30\]
*555 cal_lut\[31\]
*556 cal_lut\[32\]
*557 cal_lut\[33\]
*558 cal_lut\[34\]
*559 cal_lut\[35\]
*560 cal_lut\[36\]
*561 cal_lut\[37\]
*562 cal_lut\[38\]
*563 cal_lut\[39\]
*564 cal_lut\[3\]
*565 cal_lut\[40\]
*566 cal_lut\[41\]
*567 cal_lut\[42\]
*568 cal_lut\[43\]
*569 cal_lut\[44\]
*570 cal_lut\[45\]
*571 cal_lut\[46\]
*572 cal_lut\[47\]
*573 cal_lut\[48\]
*574 cal_lut\[49\]
*575 cal_lut\[4\]
*576 cal_lut\[50\]
*577 cal_lut\[51\]
*578 cal_lut\[52\]
*579 cal_lut\[53\]
*580 cal_lut\[54\]
*581 cal_lut\[55\]
*582 cal_lut\[56\]
*583 cal_lut\[57\]
*584 cal_lut\[58\]
*585 cal_lut\[59\]
*586 cal_lut\[5\]
*587 cal_lut\[60\]
*588 cal_lut\[61\]
*589 cal_lut\[62\]
*590 cal_lut\[63\]
*591 cal_lut\[64\]
*592 cal_lut\[65\]
*593 cal_lut\[66\]
*594 cal_lut\[67\]
*595 cal_lut\[68\]
*596 cal_lut\[69\]
*597 cal_lut\[6\]
*598 cal_lut\[70\]
*599 cal_lut\[71\]
*600 cal_lut\[72\]
*601 cal_lut\[73\]
*602 cal_lut\[74\]
*603 cal_lut\[75\]
*604 cal_lut\[76\]
*605 cal_lut\[77\]
*606 cal_lut\[78\]
*607 cal_lut\[79\]
*608 cal_lut\[7\]
*609 cal_lut\[80\]
*610 cal_lut\[81\]
*611 cal_lut\[82\]
*612 cal_lut\[83\]
*613 cal_lut\[84\]
*614 cal_lut\[85\]
*615 cal_lut\[86\]
*616 cal_lut\[87\]
*617 cal_lut\[88\]
*618 cal_lut\[89\]
*619 cal_lut\[8\]
*620 cal_lut\[90\]
*621 cal_lut\[91\]
*622 cal_lut\[92\]
*623 cal_lut\[93\]
*624 cal_lut\[94\]
*625 cal_lut\[95\]
*626 cal_lut\[96\]
*627 cal_lut\[97\]
*628 cal_lut\[98\]
*629 cal_lut\[99\]
*630 cal_lut\[9\]
*631 clknet_0__0390_
*632 clknet_0_io_in[0]
*633 clknet_0_net56
*634 clknet_0_temp1\.dcdel_capnode_notouch_
*635 clknet_0_temp1\.i_precharge_n
*636 clknet_1_0__leaf__0390_
*637 clknet_1_0__leaf_io_in[0]
*638 clknet_1_0__leaf_net56
*639 clknet_1_0__leaf_temp1\.dcdel_capnode_notouch_
*640 clknet_1_0__leaf_temp1\.i_precharge_n
*641 clknet_1_1__leaf__0390_
*642 clknet_1_1__leaf_io_in[0]
*643 clknet_1_1__leaf_net56
*644 clknet_1_1__leaf_temp1\.dcdel_capnode_notouch_
*645 clknet_1_1__leaf_temp1\.i_precharge_n
*646 ctr\[0\]
*647 ctr\[10\]
*648 ctr\[11\]
*649 ctr\[12\]
*650 ctr\[1\]
*651 ctr\[2\]
*652 ctr\[3\]
*653 ctr\[4\]
*654 ctr\[5\]
*655 ctr\[6\]
*656 ctr\[7\]
*657 ctr\[8\]
*658 ctr\[9\]
*659 dbg3\[0\]
*660 dbg3\[1\]
*661 dbg3\[2\]
*662 dbg3\[3\]
*663 dbg3\[4\]
*664 dbg3\[5\]
*665 dec1\.i_ones
*666 net1
*667 net10
*668 net11
*669 net12
*670 net13
*671 net14
*672 net15
*673 net16
*674 net17
*675 net18
*676 net19
*677 net2
*678 net20
*679 net21
*680 net22
*681 net23
*682 net24
*683 net25
*684 net26
*685 net27
*686 net28
*687 net29
*688 net3
*689 net30
*690 net31
*691 net32
*692 net33
*693 net34
*694 net35
*695 net36
*696 net37
*697 net38
*698 net39
*699 net4
*700 net40
*701 net41
*702 net42
*703 net43
*704 net44
*705 net45
*706 net46
*707 net47
*708 net48
*709 net49
*710 net5
*711 net50
*712 net51
*713 net52
*714 net53
*715 net54
*716 net55
*717 net56
*718 net57
*719 net58
*720 net59
*721 net6
*722 net7
*723 net8
*724 net9
*725 temp1\.dac\.parallel_cells\[0\]\.vdac_batch\.en_pupd
*726 temp1\.dac\.parallel_cells\[0\]\.vdac_batch\.en_vref
*727 temp1\.dac\.parallel_cells\[0\]\.vdac_batch\.npu_pd
*728 temp1\.dac\.parallel_cells\[1\]\.vdac_batch\.en_pupd
*729 temp1\.dac\.parallel_cells\[1\]\.vdac_batch\.en_vref
*730 temp1\.dac\.parallel_cells\[1\]\.vdac_batch\.npu_pd
*731 temp1\.dac\.parallel_cells\[2\]\.vdac_batch\.en_pupd
*732 temp1\.dac\.parallel_cells\[2\]\.vdac_batch\.en_vref
*733 temp1\.dac\.parallel_cells\[2\]\.vdac_batch\.npu_pd
*734 temp1\.dac\.parallel_cells\[3\]\.vdac_batch\.en_pupd
*735 temp1\.dac\.parallel_cells\[3\]\.vdac_batch\.en_vref
*736 temp1\.dac\.parallel_cells\[3\]\.vdac_batch\.npu_pd
*737 temp1\.dac\.parallel_cells\[4\]\.vdac_batch\.en_pupd
*738 temp1\.dac\.parallel_cells\[4\]\.vdac_batch\.en_vref
*739 temp1\.dac\.parallel_cells\[4\]\.vdac_batch\.npu_pd
*740 temp1\.dac\.vdac_single\.en_pupd
*741 temp1\.dac_vout_notouch_
*742 temp1\.dcdel_capnode_notouch_
*743 temp1\.dummy_notouch_\[0\]
*744 temp1\.dummy_notouch_\[10\]
*745 temp1\.dummy_notouch_\[11\]
*746 temp1\.dummy_notouch_\[12\]
*747 temp1\.dummy_notouch_\[13\]
*748 temp1\.dummy_notouch_\[14\]
*749 temp1\.dummy_notouch_\[15\]
*750 temp1\.dummy_notouch_\[1\]
*751 temp1\.dummy_notouch_\[2\]
*752 temp1\.dummy_notouch_\[3\]
*753 temp1\.dummy_notouch_\[4\]
*754 temp1\.dummy_notouch_\[5\]
*755 temp1\.dummy_notouch_\[6\]
*756 temp1\.dummy_notouch_\[7\]
*757 temp1\.dummy_notouch_\[8\]
*758 temp1\.dummy_notouch_\[9\]
*759 temp1\.i_precharge_n
*760 temp_delay_last
*761 ANTENNA_1
*762 ANTENNA_2
*763 ANTENNA_3
*764 ANTENNA_4
*765 ANTENNA_5
*766 ANTENNA_6
*767 ANTENNA_7
*768 ANTENNA_8
*769 FILLER_0_109
*770 FILLER_0_113
*771 FILLER_0_126
*772 FILLER_0_130
*773 FILLER_0_138
*774 FILLER_0_141
*775 FILLER_0_153
*776 FILLER_0_166
*777 FILLER_0_169
*778 FILLER_0_177
*779 FILLER_0_194
*780 FILLER_0_197
*781 FILLER_0_205
*782 FILLER_0_222
*783 FILLER_0_225
*784 FILLER_0_231
*785 FILLER_0_248
*786 FILLER_0_253
*787 FILLER_0_26
*788 FILLER_0_261
*789 FILLER_0_278
*790 FILLER_0_281
*791 FILLER_0_29
*792 FILLER_0_293
*793 FILLER_0_3
*794 FILLER_0_47
*795 FILLER_0_55
*796 FILLER_0_57
*797 FILLER_0_69
*798 FILLER_0_7
*799 FILLER_0_81
*800 FILLER_0_85
*801 FILLER_0_97
*802 FILLER_10_111
*803 FILLER_10_121
*804 FILLER_10_138
*805 FILLER_10_141
*806 FILLER_10_152
*807 FILLER_10_165
*808 FILLER_10_177
*809 FILLER_10_189
*810 FILLER_10_195
*811 FILLER_10_197
*812 FILLER_10_205
*813 FILLER_10_21
*814 FILLER_10_216
*815 FILLER_10_227
*816 FILLER_10_236
*817 FILLER_10_246
*818 FILLER_10_253
*819 FILLER_10_262
*820 FILLER_10_27
*821 FILLER_10_286
*822 FILLER_10_29
*823 FILLER_10_298
*824 FILLER_10_3
*825 FILLER_10_35
*826 FILLER_10_43
*827 FILLER_10_50
*828 FILLER_10_56
*829 FILLER_10_73
*830 FILLER_10_81
*831 FILLER_10_85
*832 FILLER_10_91
*833 FILLER_10_95
*834 FILLER_10_99
*835 FILLER_11_105
*836 FILLER_11_111
*837 FILLER_11_113
*838 FILLER_11_127
*839 FILLER_11_145
*840 FILLER_11_15
*841 FILLER_11_165
*842 FILLER_11_169
*843 FILLER_11_180
*844 FILLER_11_197
*845 FILLER_11_205
*846 FILLER_11_214
*847 FILLER_11_222
*848 FILLER_11_225
*849 FILLER_11_23
*850 FILLER_11_249
*851 FILLER_11_257
*852 FILLER_11_276
*853 FILLER_11_281
*854 FILLER_11_293
*855 FILLER_11_3
*856 FILLER_11_35
*857 FILLER_11_53
*858 FILLER_11_57
*859 FILLER_11_67
*860 FILLER_11_75
*861 FILLER_11_94
*862 FILLER_12_105
*863 FILLER_12_113
*864 FILLER_12_120
*865 FILLER_12_132
*866 FILLER_12_141
*867 FILLER_12_159
*868 FILLER_12_171
*869 FILLER_12_183
*870 FILLER_12_193
*871 FILLER_12_197
*872 FILLER_12_20
*873 FILLER_12_219
*874 FILLER_12_231
*875 FILLER_12_243
*876 FILLER_12_251
*877 FILLER_12_253
*878 FILLER_12_272
*879 FILLER_12_29
*880 FILLER_12_292
*881 FILLER_12_298
*882 FILLER_12_3
*883 FILLER_12_41
*884 FILLER_12_53
*885 FILLER_12_65
*886 FILLER_12_77
*887 FILLER_12_8
*888 FILLER_12_83
*889 FILLER_12_85
*890 FILLER_13_110
*891 FILLER_13_113
*892 FILLER_13_131
*893 FILLER_13_139
*894 FILLER_13_15
*895 FILLER_13_151
*896 FILLER_13_160
*897 FILLER_13_169
*898 FILLER_13_181
*899 FILLER_13_189
*900 FILLER_13_197
*901 FILLER_13_206
*902 FILLER_13_216
*903 FILLER_13_225
*904 FILLER_13_243
*905 FILLER_13_263
*906 FILLER_13_27
*907 FILLER_13_275
*908 FILLER_13_279
*909 FILLER_13_281
*910 FILLER_13_293
*911 FILLER_13_3
*912 FILLER_13_33
*913 FILLER_13_40
*914 FILLER_13_44
*915 FILLER_13_53
*916 FILLER_13_57
*917 FILLER_13_66
*918 FILLER_13_74
*919 FILLER_13_86
*920 FILLER_13_98
*921 FILLER_14_105
*922 FILLER_14_111
*923 FILLER_14_118
*924 FILLER_14_128
*925 FILLER_14_141
*926 FILLER_14_154
*927 FILLER_14_166
*928 FILLER_14_170
*929 FILLER_14_178
*930 FILLER_14_194
*931 FILLER_14_197
*932 FILLER_14_205
*933 FILLER_14_213
*934 FILLER_14_230
*935 FILLER_14_238
*936 FILLER_14_24
*937 FILLER_14_248
*938 FILLER_14_253
*939 FILLER_14_271
*940 FILLER_14_29
*941 FILLER_14_291
*942 FILLER_14_3
*943 FILLER_14_36
*944 FILLER_14_42
*945 FILLER_14_48
*946 FILLER_14_56
*947 FILLER_14_66
*948 FILLER_14_82
*949 FILLER_14_85
*950 FILLER_14_93
*951 FILLER_15_105
*952 FILLER_15_111
*953 FILLER_15_113
*954 FILLER_15_123
*955 FILLER_15_143
*956 FILLER_15_151
*957 FILLER_15_157
*958 FILLER_15_164
*959 FILLER_15_169
*960 FILLER_15_181
*961 FILLER_15_189
*962 FILLER_15_200
*963 FILLER_15_209
*964 FILLER_15_21
*965 FILLER_15_218
*966 FILLER_15_225
*967 FILLER_15_229
*968 FILLER_15_235
*969 FILLER_15_248
*970 FILLER_15_276
*971 FILLER_15_281
*972 FILLER_15_293
*973 FILLER_15_3
*974 FILLER_15_41
*975 FILLER_15_45
*976 FILLER_15_52
*977 FILLER_15_57
*978 FILLER_15_62
*979 FILLER_15_66
*980 FILLER_15_72
*981 FILLER_15_82
*982 FILLER_15_88
*983 FILLER_16_105
*984 FILLER_16_111
*985 FILLER_16_128
*986 FILLER_16_141
*987 FILLER_16_159
*988 FILLER_16_169
*989 FILLER_16_17
*990 FILLER_16_181
*991 FILLER_16_190
*992 FILLER_16_197
*993 FILLER_16_201
*994 FILLER_16_210
*995 FILLER_16_219
*996 FILLER_16_223
*997 FILLER_16_230
*998 FILLER_16_250
*999 FILLER_16_253
*1000 FILLER_16_26
*1001 FILLER_16_277
*1002 FILLER_16_29
*1003 FILLER_16_297
*1004 FILLER_16_3
*1005 FILLER_16_37
*1006 FILLER_16_44
*1007 FILLER_16_53
*1008 FILLER_16_62
*1009 FILLER_16_74
*1010 FILLER_16_82
*1011 FILLER_16_85
*1012 FILLER_16_89
*1013 FILLER_16_9
*1014 FILLER_16_94
*1015 FILLER_16_98
*1016 FILLER_17_104
*1017 FILLER_17_113
*1018 FILLER_17_124
*1019 FILLER_17_144
*1020 FILLER_17_15
*1021 FILLER_17_157
*1022 FILLER_17_166
*1023 FILLER_17_169
*1024 FILLER_17_187
*1025 FILLER_17_207
*1026 FILLER_17_220
*1027 FILLER_17_225
*1028 FILLER_17_229
*1029 FILLER_17_235
*1030 FILLER_17_241
*1031 FILLER_17_247
*1032 FILLER_17_258
*1033 FILLER_17_278
*1034 FILLER_17_281
*1035 FILLER_17_290
*1036 FILLER_17_298
*1037 FILLER_17_3
*1038 FILLER_17_36
*1039 FILLER_17_46
*1040 FILLER_17_54
*1041 FILLER_17_57
*1042 FILLER_17_67
*1043 FILLER_17_74
*1044 FILLER_17_82
*1045 FILLER_17_88
*1046 FILLER_17_94
*1047 FILLER_18_117
*1048 FILLER_18_129
*1049 FILLER_18_137
*1050 FILLER_18_141
*1051 FILLER_18_149
*1052 FILLER_18_15
*1053 FILLER_18_155
*1054 FILLER_18_166
*1055 FILLER_18_179
*1056 FILLER_18_191
*1057 FILLER_18_195
*1058 FILLER_18_197
*1059 FILLER_18_205
*1060 FILLER_18_212
*1061 FILLER_18_224
*1062 FILLER_18_232
*1063 FILLER_18_242
*1064 FILLER_18_250
*1065 FILLER_18_253
*1066 FILLER_18_264
*1067 FILLER_18_27
*1068 FILLER_18_286
*1069 FILLER_18_29
*1070 FILLER_18_298
*1071 FILLER_18_3
*1072 FILLER_18_40
*1073 FILLER_18_49
*1074 FILLER_18_57
*1075 FILLER_18_66
*1076 FILLER_18_70
*1077 FILLER_18_80
*1078 FILLER_18_85
*1079 FILLER_18_97
*1080 FILLER_19_106
*1081 FILLER_19_113
*1082 FILLER_19_131
*1083 FILLER_19_148
*1084 FILLER_19_15
*1085 FILLER_19_159
*1086 FILLER_19_167
*1087 FILLER_19_169
*1088 FILLER_19_175
*1089 FILLER_19_179
*1090 FILLER_19_196
*1091 FILLER_19_208
*1092 FILLER_19_216
*1093 FILLER_19_222
*1094 FILLER_19_225
*1095 FILLER_19_233
*1096 FILLER_19_241
*1097 FILLER_19_261
*1098 FILLER_19_27
*1099 FILLER_19_273
*1100 FILLER_19_279
*1101 FILLER_19_281
*1102 FILLER_19_290
*1103 FILLER_19_298
*1104 FILLER_19_3
*1105 FILLER_19_36
*1106 FILLER_19_47
*1107 FILLER_19_54
*1108 FILLER_19_57
*1109 FILLER_19_64
*1110 FILLER_19_81
*1111 FILLER_19_89
*1112 FILLER_1_106
*1113 FILLER_1_11
*1114 FILLER_1_113
*1115 FILLER_1_132
*1116 FILLER_1_144
*1117 FILLER_1_166
*1118 FILLER_1_169
*1119 FILLER_1_188
*1120 FILLER_1_208
*1121 FILLER_1_220
*1122 FILLER_1_225
*1123 FILLER_1_243
*1124 FILLER_1_263
*1125 FILLER_1_274
*1126 FILLER_1_281
*1127 FILLER_1_293
*1128 FILLER_1_30
*1129 FILLER_1_34
*1130 FILLER_1_51
*1131 FILLER_1_55
*1132 FILLER_1_57
*1133 FILLER_1_69
*1134 FILLER_1_7
*1135 FILLER_1_86
*1136 FILLER_20_102
*1137 FILLER_20_114
*1138 FILLER_20_120
*1139 FILLER_20_132
*1140 FILLER_20_141
*1141 FILLER_20_15
*1142 FILLER_20_159
*1143 FILLER_20_173
*1144 FILLER_20_185
*1145 FILLER_20_193
*1146 FILLER_20_197
*1147 FILLER_20_204
*1148 FILLER_20_213
*1149 FILLER_20_222
*1150 FILLER_20_236
*1151 FILLER_20_240
*1152 FILLER_20_250
*1153 FILLER_20_253
*1154 FILLER_20_257
*1155 FILLER_20_27
*1156 FILLER_20_274
*1157 FILLER_20_280
*1158 FILLER_20_29
*1159 FILLER_20_297
*1160 FILLER_20_3
*1161 FILLER_20_41
*1162 FILLER_20_49
*1163 FILLER_20_57
*1164 FILLER_20_66
*1165 FILLER_20_74
*1166 FILLER_20_82
*1167 FILLER_20_85
*1168 FILLER_20_91
*1169 FILLER_21_111
*1170 FILLER_21_113
*1171 FILLER_21_121
*1172 FILLER_21_134
*1173 FILLER_21_146
*1174 FILLER_21_15
*1175 FILLER_21_166
*1176 FILLER_21_169
*1177 FILLER_21_177
*1178 FILLER_21_186
*1179 FILLER_21_198
*1180 FILLER_21_206
*1181 FILLER_21_218
*1182 FILLER_21_225
*1183 FILLER_21_237
*1184 FILLER_21_246
*1185 FILLER_21_258
*1186 FILLER_21_27
*1187 FILLER_21_277
*1188 FILLER_21_281
*1189 FILLER_21_293
*1190 FILLER_21_3
*1191 FILLER_21_36
*1192 FILLER_21_46
*1193 FILLER_21_54
*1194 FILLER_21_57
*1195 FILLER_21_65
*1196 FILLER_21_75
*1197 FILLER_21_82
*1198 FILLER_21_92
*1199 FILLER_21_99
*1200 FILLER_22_103
*1201 FILLER_22_108
*1202 FILLER_22_122
*1203 FILLER_22_130
*1204 FILLER_22_138
*1205 FILLER_22_141
*1206 FILLER_22_15
*1207 FILLER_22_151
*1208 FILLER_22_162
*1209 FILLER_22_174
*1210 FILLER_22_185
*1211 FILLER_22_189
*1212 FILLER_22_194
*1213 FILLER_22_197
*1214 FILLER_22_215
*1215 FILLER_22_235
*1216 FILLER_22_250
*1217 FILLER_22_253
*1218 FILLER_22_257
*1219 FILLER_22_27
*1220 FILLER_22_274
*1221 FILLER_22_29
*1222 FILLER_22_294
*1223 FILLER_22_298
*1224 FILLER_22_3
*1225 FILLER_22_40
*1226 FILLER_22_48
*1227 FILLER_22_56
*1228 FILLER_22_67
*1229 FILLER_22_75
*1230 FILLER_22_82
*1231 FILLER_22_85
*1232 FILLER_22_95
*1233 FILLER_23_108
*1234 FILLER_23_113
*1235 FILLER_23_131
*1236 FILLER_23_142
*1237 FILLER_23_154
*1238 FILLER_23_163
*1239 FILLER_23_167
*1240 FILLER_23_169
*1241 FILLER_23_176
*1242 FILLER_23_184
*1243 FILLER_23_194
*1244 FILLER_23_202
*1245 FILLER_23_21
*1246 FILLER_23_210
*1247 FILLER_23_216
*1248 FILLER_23_222
*1249 FILLER_23_225
*1250 FILLER_23_237
*1251 FILLER_23_245
*1252 FILLER_23_249
*1253 FILLER_23_266
*1254 FILLER_23_278
*1255 FILLER_23_281
*1256 FILLER_23_293
*1257 FILLER_23_3
*1258 FILLER_23_32
*1259 FILLER_23_47
*1260 FILLER_23_54
*1261 FILLER_23_57
*1262 FILLER_23_66
*1263 FILLER_23_74
*1264 FILLER_23_84
*1265 FILLER_23_9
*1266 FILLER_24_102
*1267 FILLER_24_108
*1268 FILLER_24_11
*1269 FILLER_24_117
*1270 FILLER_24_125
*1271 FILLER_24_131
*1272 FILLER_24_139
*1273 FILLER_24_141
*1274 FILLER_24_152
*1275 FILLER_24_156
*1276 FILLER_24_17
*1277 FILLER_24_173
*1278 FILLER_24_186
*1279 FILLER_24_194
*1280 FILLER_24_197
*1281 FILLER_24_203
*1282 FILLER_24_220
*1283 FILLER_24_228
*1284 FILLER_24_247
*1285 FILLER_24_251
*1286 FILLER_24_253
*1287 FILLER_24_26
*1288 FILLER_24_260
*1289 FILLER_24_271
*1290 FILLER_24_279
*1291 FILLER_24_29
*1292 FILLER_24_297
*1293 FILLER_24_3
*1294 FILLER_24_38
*1295 FILLER_24_46
*1296 FILLER_24_54
*1297 FILLER_24_68
*1298 FILLER_24_72
*1299 FILLER_24_80
*1300 FILLER_24_85
*1301 FILLER_24_94
*1302 FILLER_25_108
*1303 FILLER_25_113
*1304 FILLER_25_117
*1305 FILLER_25_121
*1306 FILLER_25_133
*1307 FILLER_25_145
*1308 FILLER_25_15
*1309 FILLER_25_165
*1310 FILLER_25_169
*1311 FILLER_25_176
*1312 FILLER_25_180
*1313 FILLER_25_187
*1314 FILLER_25_207
*1315 FILLER_25_215
*1316 FILLER_25_222
*1317 FILLER_25_225
*1318 FILLER_25_231
*1319 FILLER_25_237
*1320 FILLER_25_249
*1321 FILLER_25_261
*1322 FILLER_25_278
*1323 FILLER_25_281
*1324 FILLER_25_293
*1325 FILLER_25_3
*1326 FILLER_25_39
*1327 FILLER_25_48
*1328 FILLER_25_57
*1329 FILLER_25_66
*1330 FILLER_25_70
*1331 FILLER_25_77
*1332 FILLER_25_85
*1333 FILLER_25_97
*1334 FILLER_26_104
*1335 FILLER_26_12
*1336 FILLER_26_126
*1337 FILLER_26_138
*1338 FILLER_26_141
*1339 FILLER_26_153
*1340 FILLER_26_162
*1341 FILLER_26_166
*1342 FILLER_26_176
*1343 FILLER_26_188
*1344 FILLER_26_197
*1345 FILLER_26_207
*1346 FILLER_26_223
*1347 FILLER_26_229
*1348 FILLER_26_23
*1349 FILLER_26_238
*1350 FILLER_26_250
*1351 FILLER_26_253
*1352 FILLER_26_27
*1353 FILLER_26_271
*1354 FILLER_26_279
*1355 FILLER_26_29
*1356 FILLER_26_297
*1357 FILLER_26_3
*1358 FILLER_26_35
*1359 FILLER_26_43
*1360 FILLER_26_51
*1361 FILLER_26_59
*1362 FILLER_26_68
*1363 FILLER_26_7
*1364 FILLER_26_80
*1365 FILLER_26_85
*1366 FILLER_26_92
*1367 FILLER_26_96
*1368 FILLER_27_110
*1369 FILLER_27_113
*1370 FILLER_27_121
*1371 FILLER_27_139
*1372 FILLER_27_149
*1373 FILLER_27_15
*1374 FILLER_27_157
*1375 FILLER_27_163
*1376 FILLER_27_167
*1377 FILLER_27_169
*1378 FILLER_27_178
*1379 FILLER_27_188
*1380 FILLER_27_197
*1381 FILLER_27_214
*1382 FILLER_27_222
*1383 FILLER_27_225
*1384 FILLER_27_243
*1385 FILLER_27_254
*1386 FILLER_27_278
*1387 FILLER_27_281
*1388 FILLER_27_290
*1389 FILLER_27_298
*1390 FILLER_27_3
*1391 FILLER_27_36
*1392 FILLER_27_44
*1393 FILLER_27_53
*1394 FILLER_27_57
*1395 FILLER_27_67
*1396 FILLER_27_73
*1397 FILLER_27_80
*1398 FILLER_27_84
*1399 FILLER_27_9
*1400 FILLER_27_94
*1401 FILLER_28_101
*1402 FILLER_28_106
*1403 FILLER_28_11
*1404 FILLER_28_116
*1405 FILLER_28_128
*1406 FILLER_28_141
*1407 FILLER_28_149
*1408 FILLER_28_167
*1409 FILLER_28_17
*1410 FILLER_28_177
*1411 FILLER_28_181
*1412 FILLER_28_188
*1413 FILLER_28_197
*1414 FILLER_28_209
*1415 FILLER_28_213
*1416 FILLER_28_220
*1417 FILLER_28_228
*1418 FILLER_28_237
*1419 FILLER_28_246
*1420 FILLER_28_25
*1421 FILLER_28_253
*1422 FILLER_28_271
*1423 FILLER_28_279
*1424 FILLER_28_29
*1425 FILLER_28_297
*1426 FILLER_28_3
*1427 FILLER_28_35
*1428 FILLER_28_42
*1429 FILLER_28_50
*1430 FILLER_28_57
*1431 FILLER_28_65
*1432 FILLER_28_71
*1433 FILLER_28_77
*1434 FILLER_28_82
*1435 FILLER_28_85
*1436 FILLER_28_97
*1437 FILLER_29_101
*1438 FILLER_29_11
*1439 FILLER_29_110
*1440 FILLER_29_113
*1441 FILLER_29_117
*1442 FILLER_29_123
*1443 FILLER_29_133
*1444 FILLER_29_145
*1445 FILLER_29_156
*1446 FILLER_29_164
*1447 FILLER_29_169
*1448 FILLER_29_181
*1449 FILLER_29_187
*1450 FILLER_29_19
*1451 FILLER_29_196
*1452 FILLER_29_204
*1453 FILLER_29_214
*1454 FILLER_29_222
*1455 FILLER_29_225
*1456 FILLER_29_243
*1457 FILLER_29_255
*1458 FILLER_29_261
*1459 FILLER_29_278
*1460 FILLER_29_281
*1461 FILLER_29_293
*1462 FILLER_29_3
*1463 FILLER_29_30
*1464 FILLER_29_39
*1465 FILLER_29_53
*1466 FILLER_29_57
*1467 FILLER_29_72
*1468 FILLER_29_79
*1469 FILLER_2_101
*1470 FILLER_2_118
*1471 FILLER_2_138
*1472 FILLER_2_141
*1473 FILLER_2_165
*1474 FILLER_2_173
*1475 FILLER_2_184
*1476 FILLER_2_194
*1477 FILLER_2_197
*1478 FILLER_2_212
*1479 FILLER_2_234
*1480 FILLER_2_245
*1481 FILLER_2_251
*1482 FILLER_2_253
*1483 FILLER_2_26
*1484 FILLER_2_271
*1485 FILLER_2_279
*1486 FILLER_2_29
*1487 FILLER_2_297
*1488 FILLER_2_3
*1489 FILLER_2_48
*1490 FILLER_2_52
*1491 FILLER_2_64
*1492 FILLER_2_76
*1493 FILLER_2_85
*1494 FILLER_2_97
*1495 FILLER_30_117
*1496 FILLER_30_137
*1497 FILLER_30_141
*1498 FILLER_30_145
*1499 FILLER_30_15
*1500 FILLER_30_152
*1501 FILLER_30_160
*1502 FILLER_30_172
*1503 FILLER_30_189
*1504 FILLER_30_195
*1505 FILLER_30_197
*1506 FILLER_30_215
*1507 FILLER_30_224
*1508 FILLER_30_232
*1509 FILLER_30_250
*1510 FILLER_30_253
*1511 FILLER_30_26
*1512 FILLER_30_277
*1513 FILLER_30_29
*1514 FILLER_30_297
*1515 FILLER_30_3
*1516 FILLER_30_40
*1517 FILLER_30_54
*1518 FILLER_30_58
*1519 FILLER_30_63
*1520 FILLER_30_74
*1521 FILLER_30_81
*1522 FILLER_30_85
*1523 FILLER_30_91
*1524 FILLER_30_99
*1525 FILLER_31_108
*1526 FILLER_31_113
*1527 FILLER_31_125
*1528 FILLER_31_131
*1529 FILLER_31_136
*1530 FILLER_31_144
*1531 FILLER_31_15
*1532 FILLER_31_162
*1533 FILLER_31_169
*1534 FILLER_31_179
*1535 FILLER_31_19
*1536 FILLER_31_191
*1537 FILLER_31_200
*1538 FILLER_31_212
*1539 FILLER_31_225
*1540 FILLER_31_23
*1541 FILLER_31_233
*1542 FILLER_31_243
*1543 FILLER_31_255
*1544 FILLER_31_261
*1545 FILLER_31_278
*1546 FILLER_31_281
*1547 FILLER_31_293
*1548 FILLER_31_3
*1549 FILLER_31_31
*1550 FILLER_31_46
*1551 FILLER_31_54
*1552 FILLER_31_57
*1553 FILLER_31_64
*1554 FILLER_31_72
*1555 FILLER_31_81
*1556 FILLER_31_89
*1557 FILLER_31_96
*1558 FILLER_32_107
*1559 FILLER_32_111
*1560 FILLER_32_120
*1561 FILLER_32_138
*1562 FILLER_32_141
*1563 FILLER_32_15
*1564 FILLER_32_153
*1565 FILLER_32_169
*1566 FILLER_32_178
*1567 FILLER_32_187
*1568 FILLER_32_195
*1569 FILLER_32_197
*1570 FILLER_32_210
*1571 FILLER_32_230
*1572 FILLER_32_250
*1573 FILLER_32_253
*1574 FILLER_32_26
*1575 FILLER_32_264
*1576 FILLER_32_29
*1577 FILLER_32_292
*1578 FILLER_32_298
*1579 FILLER_32_3
*1580 FILLER_32_33
*1581 FILLER_32_44
*1582 FILLER_32_56
*1583 FILLER_32_64
*1584 FILLER_32_72
*1585 FILLER_32_80
*1586 FILLER_32_85
*1587 FILLER_32_95
*1588 FILLER_33_109
*1589 FILLER_33_113
*1590 FILLER_33_131
*1591 FILLER_33_137
*1592 FILLER_33_15
*1593 FILLER_33_154
*1594 FILLER_33_163
*1595 FILLER_33_167
*1596 FILLER_33_169
*1597 FILLER_33_181
*1598 FILLER_33_193
*1599 FILLER_33_202
*1600 FILLER_33_21
*1601 FILLER_33_222
*1602 FILLER_33_225
*1603 FILLER_33_232
*1604 FILLER_33_240
*1605 FILLER_33_244
*1606 FILLER_33_261
*1607 FILLER_33_273
*1608 FILLER_33_279
*1609 FILLER_33_28
*1610 FILLER_33_281
*1611 FILLER_33_293
*1612 FILLER_33_3
*1613 FILLER_33_40
*1614 FILLER_33_45
*1615 FILLER_33_53
*1616 FILLER_33_57
*1617 FILLER_33_67
*1618 FILLER_33_78
*1619 FILLER_33_86
*1620 FILLER_33_93
*1621 FILLER_34_102
*1622 FILLER_34_113
*1623 FILLER_34_121
*1624 FILLER_34_132
*1625 FILLER_34_141
*1626 FILLER_34_15
*1627 FILLER_34_153
*1628 FILLER_34_171
*1629 FILLER_34_183
*1630 FILLER_34_195
*1631 FILLER_34_197
*1632 FILLER_34_215
*1633 FILLER_34_227
*1634 FILLER_34_247
*1635 FILLER_34_251
*1636 FILLER_34_253
*1637 FILLER_34_261
*1638 FILLER_34_27
*1639 FILLER_34_278
*1640 FILLER_34_29
*1641 FILLER_34_290
*1642 FILLER_34_298
*1643 FILLER_34_3
*1644 FILLER_34_41
*1645 FILLER_34_47
*1646 FILLER_34_64
*1647 FILLER_34_76
*1648 FILLER_34_82
*1649 FILLER_34_85
*1650 FILLER_34_94
*1651 FILLER_35_110
*1652 FILLER_35_113
*1653 FILLER_35_122
*1654 FILLER_35_134
*1655 FILLER_35_138
*1656 FILLER_35_15
*1657 FILLER_35_155
*1658 FILLER_35_167
*1659 FILLER_35_169
*1660 FILLER_35_187
*1661 FILLER_35_207
*1662 FILLER_35_219
*1663 FILLER_35_223
*1664 FILLER_35_225
*1665 FILLER_35_243
*1666 FILLER_35_255
*1667 FILLER_35_261
*1668 FILLER_35_27
*1669 FILLER_35_278
*1670 FILLER_35_281
*1671 FILLER_35_293
*1672 FILLER_35_3
*1673 FILLER_35_41
*1674 FILLER_35_45
*1675 FILLER_35_52
*1676 FILLER_35_57
*1677 FILLER_35_75
*1678 FILLER_35_81
*1679 FILLER_35_87
*1680 FILLER_35_98
*1681 FILLER_36_102
*1682 FILLER_36_110
*1683 FILLER_36_127
*1684 FILLER_36_139
*1685 FILLER_36_141
*1686 FILLER_36_148