*SPEF "ieee 1481-1999"
*DESIGN "hpretl_tt03_temperature_sensor"
*DATE "11:11:11 Fri 11 11, 1111"
*VENDOR "OpenRCX"
*PROGRAM "Parallel Extraction"
*VERSION "1.0"
*DESIGN_FLOW "NAME_SCOPE LOCAL" "PIN_CAP NONE"
*DIVIDER /
*DELIMITER :
*BUS_DELIMITER []
*T_UNIT 1 NS
*C_UNIT 1 PF
*R_UNIT 1 OHM
*L_UNIT 1 HENRY

*NAME_MAP
*1 io_in[0]
*2 io_in[1]
*3 io_in[2]
*4 io_in[3]
*5 io_in[4]
*6 io_in[5]
*7 io_in[6]
*8 io_in[7]
*9 io_out[0]
*10 io_out[1]
*11 io_out[2]
*12 io_out[3]
*13 io_out[4]
*14 io_out[5]
*15 io_out[6]
*16 io_out[7]
*19 _0000_
*20 _0001_
*21 _0002_
*22 _0003_
*23 _0004_
*24 _0005_
*25 _0006_
*26 _0007_
*27 _0008_
*28 _0009_
*29 _0010_
*30 _0011_
*31 _0012_
*32 _0013_
*33 _0014_
*34 _0015_
*35 _0016_
*36 _0017_
*37 _0018_
*38 _0019_
*39 _0020_
*40 _0021_
*41 _0022_
*42 _0023_
*43 _0024_
*44 _0025_
*45 _0026_
*46 _0027_
*47 _0028_
*48 _0029_
*49 _0030_
*50 _0031_
*51 _0032_
*52 _0033_
*53 _0034_
*54 _0035_
*55 _0036_
*56 _0037_
*57 _0038_
*58 _0039_
*59 _0040_
*60 _0041_
*61 _0042_
*62 _0043_
*63 _0044_
*64 _0045_
*65 _0046_
*66 _0047_
*67 _0048_
*68 _0049_
*69 _0050_
*70 _0051_
*71 _0052_
*72 _0053_
*73 _0054_
*74 _0055_
*75 _0056_
*76 _0057_
*77 _0058_
*78 _0059_
*79 _0060_
*80 _0061_
*81 _0062_
*82 _0063_
*83 _0064_
*84 _0065_
*85 _0066_
*86 _0067_
*87 _0068_
*88 _0069_
*89 _0070_
*90 _0071_
*91 _0072_
*92 _0073_
*93 _0074_
*94 _0075_
*95 _0076_
*96 _0077_
*97 _0078_
*98 _0079_
*99 _0080_
*100 _0081_
*101 _0082_
*102 _0083_
*103 _0084_
*104 _0085_
*105 _0086_
*106 _0087_
*107 _0088_
*108 _0089_
*109 _0090_
*110 _0091_
*111 _0092_
*112 _0093_
*113 _0094_
*114 _0095_
*115 _0096_
*116 _0097_
*117 _0098_
*118 _0099_
*119 _0100_
*120 _0101_
*121 _0102_
*122 _0103_
*123 _0104_
*124 _0105_
*125 _0106_
*126 _0107_
*127 _0108_
*128 _0109_
*129 _0110_
*130 _0111_
*131 _0112_
*132 _0113_
*133 _0114_
*134 _0115_
*135 _0116_
*136 _0117_
*137 _0118_
*138 _0119_
*139 _0120_
*140 _0121_
*141 _0122_
*142 _0123_
*143 _0124_
*144 _0125_
*145 _0126_
*146 _0127_
*147 _0128_
*148 _0129_
*149 _0130_
*150 _0131_
*151 _0132_
*152 _0133_
*153 _0134_
*154 _0135_
*155 _0136_
*156 _0137_
*157 _0138_
*158 _0139_
*159 _0140_
*160 _0141_
*161 _0142_
*162 _0143_
*163 _0144_
*164 _0145_
*165 _0146_
*166 _0147_
*167 _0148_
*168 _0149_
*169 _0150_
*170 _0151_
*171 _0152_
*172 _0153_
*173 _0154_
*174 _0155_
*175 _0156_
*176 _0157_
*177 _0158_
*178 _0159_
*179 _0160_
*180 _0161_
*181 _0162_
*182 _0163_
*183 _0164_
*184 _0165_
*185 _0166_
*186 _0167_
*187 _0168_
*188 _0169_
*189 _0170_
*190 _0171_
*191 _0172_
*192 _0173_
*193 _0174_
*194 _0175_
*195 _0176_
*196 _0177_
*197 _0178_
*198 _0179_
*199 _0180_
*200 _0181_
*201 _0182_
*202 _0183_
*203 _0184_
*204 _0185_
*205 _0186_
*206 _0187_
*207 _0188_
*208 _0189_
*209 _0190_
*210 _0191_
*211 _0192_
*212 _0193_
*213 _0194_
*214 _0195_
*215 _0196_
*216 _0197_
*217 _0198_
*218 _0199_
*219 _0200_
*220 _0201_
*221 _0202_
*222 _0203_
*223 _0204_
*224 _0205_
*225 _0206_
*226 _0207_
*227 _0208_
*228 _0209_
*229 _0210_
*230 _0211_
*231 _0212_
*232 _0213_
*233 _0214_
*234 _0215_
*235 _0216_
*236 _0217_
*237 _0218_
*238 _0219_
*239 _0220_
*240 _0221_
*241 _0222_
*242 _0223_
*243 _0224_
*244 _0225_
*245 _0226_
*246 _0227_
*247 _0228_
*248 _0229_
*249 _0230_
*250 _0231_
*251 _0232_
*252 _0233_
*253 _0234_
*254 _0235_
*255 _0236_
*256 _0237_
*257 _0238_
*258 _0239_
*259 _0240_
*260 _0241_
*261 _0242_
*262 _0243_
*263 _0244_
*264 _0245_
*265 _0246_
*266 _0247_
*267 _0248_
*268 _0249_
*269 _0250_
*270 _0251_
*271 _0252_
*272 _0253_
*273 _0254_
*274 _0255_
*275 _0256_
*276 _0257_
*277 _0258_
*278 _0259_
*279 _0260_
*280 _0261_
*281 _0262_
*282 _0263_
*283 _0264_
*284 _0265_
*285 _0266_
*286 _0267_
*287 _0268_
*288 _0269_
*289 _0270_
*290 _0271_
*291 _0272_
*292 _0273_
*293 _0274_
*294 _0275_
*295 _0276_
*296 _0277_
*297 _0278_
*298 _0279_
*299 _0280_
*300 _0281_
*301 _0282_
*302 _0283_
*303 _0284_
*304 _0285_
*305 _0286_
*306 _0287_
*307 _0288_
*308 _0289_
*309 _0290_
*310 _0291_
*311 _0292_
*312 _0293_
*313 _0294_
*314 _0295_
*315 _0296_
*316 _0297_
*317 _0298_
*318 _0299_
*319 _0300_
*320 _0301_
*321 _0302_
*322 _0303_
*323 _0304_
*324 _0305_
*325 _0306_
*326 _0307_
*327 _0308_
*328 _0309_
*329 _0310_
*330 _0311_
*331 _0312_
*332 _0313_
*333 _0314_
*334 _0315_
*335 _0316_
*336 _0317_
*337 _0318_
*338 _0319_
*339 _0320_
*340 _0321_
*341 _0322_
*342 _0323_
*343 _0324_
*344 _0325_
*345 _0326_
*346 _0327_
*347 _0328_
*348 _0329_
*349 _0330_
*350 _0331_
*351 _0332_
*352 _0333_
*353 _0334_
*354 _0335_
*355 _0336_
*356 _0337_
*357 _0338_
*358 _0339_
*359 _0340_
*360 _0341_
*361 _0342_
*362 _0343_
*363 _0344_
*364 _0345_
*365 _0346_
*366 _0347_
*367 _0348_
*368 _0349_
*369 _0350_
*370 _0351_
*371 _0352_
*372 _0353_
*373 _0354_
*374 _0355_
*375 _0356_
*376 _0357_
*377 _0358_
*378 _0359_
*379 _0360_
*380 _0361_
*381 _0362_
*382 _0363_
*383 _0364_
*384 _0365_
*385 _0366_
*386 _0367_
*387 _0368_
*388 _0369_
*389 _0370_
*390 _0371_
*391 _0372_
*392 _0373_
*393 _0374_
*394 _0375_
*395 _0376_
*396 _0377_
*397 _0378_
*398 _0379_
*399 _0380_
*400 _0381_
*401 _0382_
*402 _0383_
*403 _0384_
*404 _0385_
*405 _0386_
*406 _0387_
*407 _0388_
*408 _0389_
*409 _0390_
*410 _0391_
*411 _0392_
*412 _0393_
*413 _0394_
*414 _0395_
*415 _0396_
*416 _0397_
*417 _0398_
*418 _0399_
*419 _0400_
*420 _0401_
*421 _0402_
*422 _0403_
*423 _0404_
*424 _0405_
*425 _0406_
*426 _0407_
*427 _0408_
*428 _0409_
*429 _0410_
*430 _0411_
*431 _0412_
*432 _0413_
*433 _0414_
*434 _0415_
*435 _0416_
*436 _0417_
*437 _0418_
*438 _0419_
*439 _0420_
*440 _0421_
*441 _0422_
*442 _0423_
*443 _0424_
*444 _0425_
*445 _0426_
*446 _0427_
*447 _0428_
*448 _0429_
*449 _0430_
*450 _0431_
*451 _0432_
*452 _0433_
*453 _0434_
*454 _0435_
*455 _0436_
*456 _0437_
*457 _0438_
*458 _0439_
*459 _0440_
*460 _0441_
*461 _0442_
*462 _0443_
*463 _0444_
*464 _0445_
*465 _0446_
*466 _0447_
*467 _0448_
*468 _0449_
*469 _0450_
*470 _0451_
*471 _0452_
*472 _0453_
*473 _0454_
*474 _0455_
*475 _0456_
*476 _0457_
*477 _0458_
*478 _0459_
*479 _0460_
*480 _0461_
*481 _0462_
*482 _0463_
*483 _0464_
*484 _0465_
*485 _0466_
*486 _0467_
*487 _0468_
*488 _0469_
*489 _0470_
*490 _0471_
*491 _0472_
*492 _0473_
*493 _0474_
*494 _0475_
*495 _0476_
*496 _0477_
*497 _0478_
*498 _0479_
*499 _0480_
*500 _0481_
*501 _0482_
*502 _0483_
*503 _0484_
*504 _0485_
*505 _0486_
*506 _0487_
*507 _0488_
*508 _0489_
*509 _0490_
*510 _0491_
*511 _0492_
*512 _0493_
*513 _0494_
*514 _0495_
*515 _0496_
*516 _0497_
*517 _0498_
*518 _0499_
*519 _0500_
*520 _0501_
*521 _0502_
*522 _0503_
*523 _0504_
*524 _0505_
*525 _0506_
*526 _0507_
*527 _0508_
*528 _0509_
*529 _0510_
*530 _0511_
*531 _0512_
*532 _0513_
*533 _0514_
*534 _0515_
*535 _0516_
*536 _0517_
*537 _0518_
*538 _0519_
*539 _0520_
*540 _0521_
*541 _0522_
*542 _0523_
*543 _0524_
*544 _0525_
*545 _0526_
*546 _0527_
*547 _0528_
*548 _0529_
*549 _0530_
*550 _0531_
*551 _0532_
*552 _0533_
*553 _0534_
*554 _0535_
*555 _0536_
*556 _0537_
*557 _0538_
*558 _0539_
*559 _0540_
*560 _0541_
*561 _0542_
*562 _0543_
*563 _0544_
*564 _0545_
*565 _0546_
*566 _0547_
*567 _0548_
*568 _0549_
*569 _0550_
*570 _0551_
*571 _0552_
*572 _0553_
*573 _0554_
*574 _0555_
*575 _0556_
*576 _0557_
*577 _0558_
*578 _0559_
*579 _0560_
*580 _0561_
*581 _0562_
*582 _0563_
*583 _0564_
*584 _0565_
*585 _0566_
*586 _0567_
*587 _0568_
*588 _0569_
*589 _0570_
*590 _0571_
*591 _0572_
*592 _0573_
*593 _0574_
*594 _0575_
*595 _0576_
*596 _0577_
*597 _0578_
*598 _0579_
*599 _0580_
*600 _0581_
*601 _0582_
*602 _0583_
*603 _0584_
*604 _0585_
*605 _0586_
*606 _0587_
*607 _0588_
*608 _0589_
*609 _0590_
*610 _0591_
*611 _0592_
*612 _0593_
*613 _0594_
*614 _0595_
*615 _0596_
*616 _0597_
*617 _0598_
*618 _0599_
*619 _0600_
*620 _0601_
*621 _0602_
*622 _0603_
*623 _0604_
*624 _0605_
*625 _0606_
*626 _0607_
*627 _0608_
*628 _0609_
*629 _0610_
*630 _0611_
*631 _0612_
*632 _0613_
*633 _0614_
*634 _0615_
*635 _0616_
*636 _0617_
*637 _0618_
*638 _0619_
*639 _0620_
*640 _0621_
*641 _0622_
*642 _0623_
*643 _0624_
*644 _0625_
*645 _0626_
*646 _0627_
*647 _0628_
*648 _0629_
*649 _0630_
*650 _0631_
*651 _0632_
*652 _0633_
*653 _0634_
*654 _0635_
*655 _0636_
*656 _0637_
*657 _0638_
*658 _0639_
*659 _0640_
*660 _0641_
*661 _0642_
*662 _0643_
*663 _0644_
*664 _0645_
*665 _0646_
*666 _0647_
*667 _0648_
*668 _0649_
*669 _0650_
*670 _0651_
*671 _0652_
*672 _0653_
*673 _0654_
*674 _0655_
*675 _0656_
*676 _0657_
*677 _0658_
*678 _0659_
*679 _0660_
*680 _0661_
*681 _0662_
*682 _0663_
*683 _0664_
*684 _0665_
*685 _0666_
*686 _0667_
*687 _0668_
*688 _0669_
*689 _0670_
*690 _0671_
*691 _0672_
*692 _0673_
*693 _0674_
*694 _0675_
*695 _0676_
*696 _0677_
*697 _0678_
*698 _0679_
*699 _0680_
*700 _0681_
*701 _0682_
*702 _0683_
*703 _0684_
*704 _0685_
*705 _0686_
*706 _0687_
*707 _0688_
*708 _0689_
*709 _0690_
*710 _0691_
*711 _0692_
*712 _0693_
*713 _0694_
*714 _0695_
*715 _0696_
*716 _0697_
*717 _0698_
*718 _0699_
*719 _0700_
*720 _0701_
*721 _0702_
*722 _0703_
*723 _0704_
*724 _0705_
*725 _0706_
*726 _0707_
*727 _0708_
*728 _0709_
*729 _0710_
*730 _0711_
*731 _0712_
*732 _0713_
*733 _0714_
*734 _0715_
*735 _0716_
*736 _0717_
*737 _0718_
*738 _0719_
*739 _0720_
*740 _0721_
*741 _0722_
*742 _0723_
*743 _0724_
*744 _0725_
*745 _0726_
*746 _0727_
*747 _0728_
*748 _0729_
*749 _0730_
*750 _0731_
*751 _0732_
*752 _0733_
*753 _0734_
*754 _0735_
*755 _0736_
*756 _0737_
*757 _0738_
*758 _0739_
*759 _0740_
*760 _0741_
*761 _0742_
*762 _0743_
*763 _0744_
*764 _0745_
*765 _0746_
*766 _0747_
*767 _0748_
*768 _0749_
*769 _0750_
*770 _0751_
*771 _0752_
*772 _0753_
*773 _0754_
*774 _0755_
*775 _0756_
*776 _0757_
*777 _0758_
*778 _0759_
*779 _0760_
*780 _0761_
*781 _0762_
*782 _0763_
*783 _0764_
*784 _0765_
*785 _0766_
*786 _0767_
*787 _0768_
*788 _0769_
*789 _0770_
*790 _0771_
*791 _0772_
*792 _0773_
*793 _0774_
*794 _0775_
*795 _0776_
*796 _0777_
*797 _0778_
*798 _0779_
*799 _0780_
*800 _0781_
*801 _0782_
*802 _0783_
*803 _0784_
*804 _0785_
*805 _0786_
*806 _0787_
*807 _0788_
*808 _0789_
*809 _0790_
*810 _0791_
*811 _0792_
*812 _0793_
*813 _0794_
*814 _0795_
*815 _0796_
*816 _0797_
*817 _0798_
*818 _0799_
*819 _0800_
*820 _0801_
*821 _0802_
*822 _0803_
*823 _0804_
*824 _0805_
*825 _0806_
*826 _0807_
*827 _0808_
*828 _0809_
*829 _0810_
*830 _0811_
*831 _0812_
*832 _0813_
*833 _0814_
*834 _0815_
*835 _0816_
*836 _0817_
*837 _0818_
*838 _0819_
*839 _0820_
*840 _0821_
*841 _0822_
*842 _0823_
*843 _0824_
*844 _0825_
*845 _0826_
*846 _0827_
*847 _0828_
*848 _0829_
*849 _0830_
*850 _0831_
*851 _0832_
*852 _0833_
*853 _0834_
*854 _0835_
*855 _0836_
*856 _0837_
*857 _0838_
*858 _0839_
*859 _0840_
*860 _0841_
*861 _0842_
*862 _0843_
*863 _0844_
*864 _0845_
*865 _0846_
*866 _0847_
*867 _0848_
*868 _0849_
*869 _0850_
*870 _0851_
*871 _0852_
*872 _0853_
*873 _0854_
*874 _0855_
*875 _0856_
*876 _0857_
*877 _0858_
*878 _0859_
*879 _0860_
*880 _0861_
*881 _0862_
*882 _0863_
*883 _0864_
*884 _0865_
*885 _0866_
*886 _0867_
*887 _0868_
*888 _0869_
*889 _0870_
*890 _0871_
*891 _0872_
*892 _0873_
*893 _0874_
*894 _0875_
*895 _0876_
*896 _0877_
*897 _0878_
*898 _0879_
*899 _0880_
*900 _0881_
*901 _0882_
*902 _0883_
*903 cal_lut\[100\]
*904 cal_lut\[101\]
*905 cal_lut\[102\]
*906 cal_lut\[103\]
*907 cal_lut\[104\]
*908 cal_lut\[105\]
*909 cal_lut\[106\]
*910 cal_lut\[107\]
*911 cal_lut\[108\]
*912 cal_lut\[109\]
*913 cal_lut\[10\]
*914 cal_lut\[110\]
*915 cal_lut\[111\]
*916 cal_lut\[112\]
*917 cal_lut\[113\]
*918 cal_lut\[114\]
*919 cal_lut\[115\]
*920 cal_lut\[116\]
*921 cal_lut\[117\]
*922 cal_lut\[118\]
*923 cal_lut\[119\]
*924 cal_lut\[11\]
*925 cal_lut\[120\]
*926 cal_lut\[121\]
*927 cal_lut\[122\]
*928 cal_lut\[123\]
*929 cal_lut\[124\]
*930 cal_lut\[125\]
*931 cal_lut\[126\]
*932 cal_lut\[127\]
*933 cal_lut\[128\]
*934 cal_lut\[129\]
*935 cal_lut\[12\]
*936 cal_lut\[130\]
*937 cal_lut\[131\]
*938 cal_lut\[132\]
*939 cal_lut\[133\]
*940 cal_lut\[134\]
*941 cal_lut\[135\]
*942 cal_lut\[136\]
*943 cal_lut\[137\]
*944 cal_lut\[138\]
*945 cal_lut\[139\]
*946 cal_lut\[13\]
*947 cal_lut\[140\]
*948 cal_lut\[141\]
*949 cal_lut\[142\]
*950 cal_lut\[143\]
*951 cal_lut\[144\]
*952 cal_lut\[145\]
*953 cal_lut\[146\]
*954 cal_lut\[147\]
*955 cal_lut\[148\]
*956 cal_lut\[149\]
*957 cal_lut\[14\]
*958 cal_lut\[150\]
*959 cal_lut\[151\]
*960 cal_lut\[152\]
*961 cal_lut\[153\]
*962 cal_lut\[154\]
*963 cal_lut\[155\]
*964 cal_lut\[156\]
*965 cal_lut\[157\]
*966 cal_lut\[158\]
*967 cal_lut\[159\]
*968 cal_lut\[15\]
*969 cal_lut\[160\]
*970 cal_lut\[161\]
*971 cal_lut\[162\]
*972 cal_lut\[163\]
*973 cal_lut\[164\]
*974 cal_lut\[165\]
*975 cal_lut\[166\]
*976 cal_lut\[167\]
*977 cal_lut\[168\]
*978 cal_lut\[169\]
*979 cal_lut\[16\]
*980 cal_lut\[170\]
*981 cal_lut\[171\]
*982 cal_lut\[172\]
*983 cal_lut\[173\]
*984 cal_lut\[174\]
*985 cal_lut\[175\]
*986 cal_lut\[176\]
*987 cal_lut\[177\]
*988 cal_lut\[178\]
*989 cal_lut\[179\]
*990 cal_lut\[17\]
*991 cal_lut\[180\]
*992 cal_lut\[181\]
*993 cal_lut\[182\]
*994 cal_lut\[183\]
*995 cal_lut\[184\]
*996 cal_lut\[185\]
*997 cal_lut\[186\]
*998 cal_lut\[187\]
*999 cal_lut\[188\]
*1000 cal_lut\[189\]
*1001 cal_lut\[18\]
*1002 cal_lut\[190\]
*1003 cal_lut\[191\]
*1004 cal_lut\[192\]
*1005 cal_lut\[19\]
*1006 cal_lut\[1\]
*1007 cal_lut\[20\]
*1008 cal_lut\[21\]
*1009 cal_lut\[22\]
*1010 cal_lut\[23\]
*1011 cal_lut\[24\]
*1012 cal_lut\[25\]
*1013 cal_lut\[26\]
*1014 cal_lut\[27\]
*1015 cal_lut\[28\]
*1016 cal_lut\[29\]
*1017 cal_lut\[2\]
*1018 cal_lut\[30\]
*1019 cal_lut\[31\]
*1020 cal_lut\[32\]
*1021 cal_lut\[33\]
*1022 cal_lut\[34\]
*1023 cal_lut\[35\]
*1024 cal_lut\[36\]
*1025 cal_lut\[37\]
*1026 cal_lut\[38\]
*1027 cal_lut\[39\]
*1028 cal_lut\[3\]
*1029 cal_lut\[40\]
*1030 cal_lut\[41\]
*1031 cal_lut\[42\]
*1032 cal_lut\[43\]
*1033 cal_lut\[44\]
*1034 cal_lut\[45\]
*1035 cal_lut\[46\]
*1036 cal_lut\[47\]
*1037 cal_lut\[48\]
*1038 cal_lut\[49\]
*1039 cal_lut\[4\]
*1040 cal_lut\[50\]
*1041 cal_lut\[51\]
*1042 cal_lut\[52\]
*1043 cal_lut\[53\]
*1044 cal_lut\[54\]
*1045 cal_lut\[55\]
*1046 cal_lut\[56\]
*1047 cal_lut\[57\]
*1048 cal_lut\[58\]
*1049 cal_lut\[59\]
*1050 cal_lut\[5\]
*1051 cal_lut\[60\]
*1052 cal_lut\[61\]
*1053 cal_lut\[62\]
*1054 cal_lut\[63\]
*1055 cal_lut\[64\]
*1056 cal_lut\[65\]
*1057 cal_lut\[66\]
*1058 cal_lut\[67\]
*1059 cal_lut\[68\]
*1060 cal_lut\[69\]
*1061 cal_lut\[6\]
*1062 cal_lut\[70\]
*1063 cal_lut\[71\]
*1064 cal_lut\[72\]
*1065 cal_lut\[73\]
*1066 cal_lut\[74\]
*1067 cal_lut\[75\]
*1068 cal_lut\[76\]
*1069 cal_lut\[77\]
*1070 cal_lut\[78\]
*1071 cal_lut\[79\]
*1072 cal_lut\[7\]
*1073 cal_lut\[80\]
*1074 cal_lut\[81\]
*1075 cal_lut\[82\]
*1076 cal_lut\[83\]
*1077 cal_lut\[84\]
*1078 cal_lut\[85\]
*1079 cal_lut\[86\]
*1080 cal_lut\[87\]
*1081 cal_lut\[88\]
*1082 cal_lut\[89\]
*1083 cal_lut\[8\]
*1084 cal_lut\[90\]
*1085 cal_lut\[91\]
*1086 cal_lut\[92\]
*1087 cal_lut\[93\]
*1088 cal_lut\[94\]
*1089 cal_lut\[95\]
*1090 cal_lut\[96\]
*1091 cal_lut\[97\]
*1092 cal_lut\[98\]
*1093 cal_lut\[99\]
*1094 cal_lut\[9\]
*1095 clknet_0__0380_
*1096 clknet_0_io_in[0]
*1097 clknet_0_net57
*1098 clknet_0_temp1\.dcdel_capnode_notouch_
*1099 clknet_0_temp1\.i_precharge_n
*1100 clknet_1_0__leaf__0380_
*1101 clknet_1_0__leaf_io_in[0]
*1102 clknet_1_0__leaf_net57
*1103 clknet_1_0__leaf_temp1\.dcdel_capnode_notouch_
*1104 clknet_1_0__leaf_temp1\.i_precharge_n
*1105 clknet_1_1__leaf__0380_
*1106 clknet_1_1__leaf_io_in[0]
*1107 clknet_1_1__leaf_net57
*1108 clknet_1_1__leaf_temp1\.dcdel_capnode_notouch_
*1109 clknet_1_1__leaf_temp1\.i_precharge_n
*1110 ctr\[0\]
*1111 ctr\[10\]
*1112 ctr\[11\]
*1113 ctr\[12\]
*1114 ctr\[1\]
*1115 ctr\[2\]
*1116 ctr\[3\]
*1117 ctr\[4\]
*1118 ctr\[5\]
*1119 ctr\[6\]
*1120 ctr\[7\]
*1121 ctr\[8\]
*1122 ctr\[9\]
*1123 dbg3\[0\]
*1124 dbg3\[1\]
*1125 dbg3\[2\]
*1126 dbg3\[3\]
*1127 dbg3\[4\]
*1128 dbg3\[5\]
*1129 dec1\.i_ones
*1130 net1
*1131 net10
*1132 net11
*1133 net12
*1134 net13
*1135 net14
*1136 net15
*1137 net16
*1138 net17
*1139 net18
*1140 net19
*1141 net2
*1142 net20
*1143 net21
*1144 net22
*1145 net23
*1146 net24
*1147 net25
*1148 net26
*1149 net27
*1150 net28
*1151 net29
*1152 net3
*1153 net30
*1154 net31
*1155 net32
*1156 net33
*1157 net34
*1158 net35
*1159 net36
*1160 net37
*1161 net38
*1162 net39
*1163 net4
*1164 net40
*1165 net41
*1166 net42
*1167 net43
*1168 net44
*1169 net45
*1170 net46
*1171 net47
*1172 net48
*1173 net49
*1174 net5
*1175 net50
*1176 net51
*1177 net52
*1178 net53
*1179 net54
*1180 net55
*1181 net56
*1182 net57
*1183 net58
*1184 net59
*1185 net6
*1186 net60
*1187 net7
*1188 net8
*1189 net9
*1190 temp1\.dac\.parallel_cells\[0\]\.vdac_batch\.en_pupd
*1191 temp1\.dac\.parallel_cells\[0\]\.vdac_batch\.en_vref
*1192 temp1\.dac\.parallel_cells\[0\]\.vdac_batch\.npu_pd
*1193 temp1\.dac\.parallel_cells\[1\]\.vdac_batch\.en_pupd
*1194 temp1\.dac\.parallel_cells\[1\]\.vdac_batch\.en_vref
*1195 temp1\.dac\.parallel_cells\[1\]\.vdac_batch\.npu_pd
*1196 temp1\.dac\.parallel_cells\[2\]\.vdac_batch\.en_pupd
*1197 temp1\.dac\.parallel_cells\[2\]\.vdac_batch\.en_vref
*1198 temp1\.dac\.parallel_cells\[2\]\.vdac_batch\.npu_pd
*1199 temp1\.dac\.parallel_cells\[3\]\.vdac_batch\.en_pupd
*1200 temp1\.dac\.parallel_cells\[3\]\.vdac_batch\.en_vref
*1201 temp1\.dac\.parallel_cells\[3\]\.vdac_batch\.npu_pd
*1202 temp1\.dac\.parallel_cells\[4\]\.vdac_batch\.en_pupd
*1203 temp1\.dac\.parallel_cells\[4\]\.vdac_batch\.en_vref
*1204 temp1\.dac\.parallel_cells\[4\]\.vdac_batch\.npu_pd
*1205 temp1\.dac\.vdac_single\.en_pupd
*1206 temp1\.dac_vout_notouch_
*1207 temp1\.dcdel_capnode_notouch_
*1208 temp1\.dummy_notouch_\[0\]
*1209 temp1\.dummy_notouch_\[10\]
*1210 temp1\.dummy_notouch_\[11\]
*1211 temp1\.dummy_notouch_\[12\]
*1212 temp1\.dummy_notouch_\[13\]
*1213 temp1\.dummy_notouch_\[14\]
*1214 temp1\.dummy_notouch_\[15\]
*1215 temp1\.dummy_notouch_\[1\]
*1216 temp1\.dummy_notouch_\[2\]
*1217 temp1\.dummy_notouch_\[3\]
*1218 temp1\.dummy_notouch_\[4\]
*1219 temp1\.dummy_notouch_\[5\]
*1220 temp1\.dummy_notouch_\[6\]
*1221 temp1\.dummy_notouch_\[7\]
*1222 temp1\.dummy_notouch_\[8\]
*1223 temp1\.dummy_notouch_\[9\]
*1224 temp1\.i_precharge_n
*1225 temp_delay_last
*1226 ANTENNA_1
*1227 ANTENNA_2
*1228 ANTENNA_3
*1229 ANTENNA_4
*1230 ANTENNA_5
*1231 ANTENNA_6
*1232 ANTENNA_7
*1233 FILLER_0_106
*1234 FILLER_0_113
*1235 FILLER_0_131
*1236 FILLER_0_138
*1237 FILLER_0_141
*1238 FILLER_0_151
*1239 FILLER_0_160
*1240 FILLER_0_169
*1241 FILLER_0_174
*1242 FILLER_0_194
*1243 FILLER_0_197
*1244 FILLER_0_21
*1245 FILLER_0_215
*1246 FILLER_0_222
*1247 FILLER_0_225
*1248 FILLER_0_243
*1249 FILLER_0_250
*1250 FILLER_0_253
*1251 FILLER_0_27
*1252 FILLER_0_271
*1253 FILLER_0_278
*1254 FILLER_0_281
*1255 FILLER_0_286
*1256 FILLER_0_29
*1257 FILLER_0_290
*1258 FILLER_0_298
*1259 FILLER_0_3
*1260 FILLER_0_49
*1261 FILLER_0_53
*1262 FILLER_0_57
*1263 FILLER_0_76
*1264 FILLER_0_85
*1265 FILLER_0_97
*1266 FILLER_10_110
*1267 FILLER_10_121
*1268 FILLER_10_134
*1269 FILLER_10_141
*1270 FILLER_10_150
*1271 FILLER_10_159
*1272 FILLER_10_169
*1273 FILLER_10_173
*1274 FILLER_10_180
*1275 FILLER_10_190
*1276 FILLER_10_197
*1277 FILLER_10_205
*1278 FILLER_10_21
*1279 FILLER_10_215
*1280 FILLER_10_223
*1281 FILLER_10_240
*1282 FILLER_10_247
*1283 FILLER_10_251
*1284 FILLER_10_253
*1285 FILLER_10_27
*1286 FILLER_10_271
*1287 FILLER_10_29
*1288 FILLER_10_291
*1289 FILLER_10_3
*1290 FILLER_10_33
*1291 FILLER_10_41
*1292 FILLER_10_47
*1293 FILLER_10_53
*1294 FILLER_10_63
*1295 FILLER_10_71
*1296 FILLER_10_75
*1297 FILLER_10_82
*1298 FILLER_10_85
*1299 FILLER_10_98
*1300 FILLER_11_103
*1301 FILLER_11_110
*1302 FILLER_11_113
*1303 FILLER_11_118
*1304 FILLER_11_126
*1305 FILLER_11_133
*1306 FILLER_11_141
*1307 FILLER_11_158
*1308 FILLER_11_166
*1309 FILLER_11_169
*1310 FILLER_11_175
*1311 FILLER_11_185
*1312 FILLER_11_191
*1313 FILLER_11_197
*1314 FILLER_11_207
*1315 FILLER_11_214
*1316 FILLER_11_221
*1317 FILLER_11_225
*1318 FILLER_11_231
*1319 FILLER_11_238
*1320 FILLER_11_24
*1321 FILLER_11_245
*1322 FILLER_11_253
*1323 FILLER_11_271
*1324 FILLER_11_279
*1325 FILLER_11_281
*1326 FILLER_11_293
*1327 FILLER_11_3
*1328 FILLER_11_44
*1329 FILLER_11_54
*1330 FILLER_11_57
*1331 FILLER_11_61
*1332 FILLER_11_66
*1333 FILLER_11_73
*1334 FILLER_11_83
*1335 FILLER_12_104
*1336 FILLER_12_111
*1337 FILLER_12_120
*1338 FILLER_12_128
*1339 FILLER_12_134
*1340 FILLER_12_138
*1341 FILLER_12_141
*1342 FILLER_12_148
*1343 FILLER_12_156
*1344 FILLER_12_167
*1345 FILLER_12_175
*1346 FILLER_12_182
*1347 FILLER_12_188
*1348 FILLER_12_194
*1349 FILLER_12_197
*1350 FILLER_12_204
*1351 FILLER_12_210
*1352 FILLER_12_227
*1353 FILLER_12_23
*1354 FILLER_12_237
*1355 FILLER_12_244
*1356 FILLER_12_253
*1357 FILLER_12_258
*1358 FILLER_12_266
*1359 FILLER_12_27
*1360 FILLER_12_284
*1361 FILLER_12_29
*1362 FILLER_12_296
*1363 FILLER_12_3
*1364 FILLER_12_35
*1365 FILLER_12_42
*1366 FILLER_12_55
*1367 FILLER_12_64
*1368 FILLER_12_68
*1369 FILLER_12_75
*1370 FILLER_12_82
*1371 FILLER_12_85
*1372 FILLER_12_97
*1373 FILLER_13_110
*1374 FILLER_13_113
*1375 FILLER_13_131
*1376 FILLER_13_139
*1377 FILLER_13_151
*1378 FILLER_13_160
*1379 FILLER_13_169
*1380 FILLER_13_176
*1381 FILLER_13_185
*1382 FILLER_13_194
*1383 FILLER_13_203
*1384 FILLER_13_210
*1385 FILLER_13_217
*1386 FILLER_13_22
*1387 FILLER_13_223
*1388 FILLER_13_225
*1389 FILLER_13_230
*1390 FILLER_13_238
*1391 FILLER_13_255
*1392 FILLER_13_275
*1393 FILLER_13_279
*1394 FILLER_13_281
*1395 FILLER_13_29
*1396 FILLER_13_293
*1397 FILLER_13_3
*1398 FILLER_13_39
*1399 FILLER_13_45
*1400 FILLER_13_51
*1401 FILLER_13_55
*1402 FILLER_13_57
*1403 FILLER_13_61
*1404 FILLER_13_67
*1405 FILLER_13_77
*1406 FILLER_13_81
*1407 FILLER_13_88
*1408 FILLER_14_107
*1409 FILLER_14_116
*1410 FILLER_14_125
*1411 FILLER_14_13
*1412 FILLER_14_138
*1413 FILLER_14_141
*1414 FILLER_14_149
*1415 FILLER_14_153
*1416 FILLER_14_159
*1417 FILLER_14_17
*1418 FILLER_14_179
*1419 FILLER_14_188
*1420 FILLER_14_197
*1421 FILLER_14_204
*1422 FILLER_14_213
*1423 FILLER_14_220
*1424 FILLER_14_227
*1425 FILLER_14_233
*1426 FILLER_14_250
*1427 FILLER_14_253
*1428 FILLER_14_26
*1429 FILLER_14_271
*1430 FILLER_14_277
*1431 FILLER_14_29
*1432 FILLER_14_294
*1433 FILLER_14_298
*1434 FILLER_14_3
*1435 FILLER_14_36
*1436 FILLER_14_43
*1437 FILLER_14_52
*1438 FILLER_14_64
*1439 FILLER_14_73
*1440 FILLER_14_81
*1441 FILLER_14_85
*1442 FILLER_14_9
*1443 FILLER_14_91
*1444 FILLER_14_97
*1445 FILLER_15_106
*1446 FILLER_15_113
*1447 FILLER_15_123
*1448 FILLER_15_133
*1449 FILLER_15_140
*1450 FILLER_15_149
*1451 FILLER_15_157
*1452 FILLER_15_161
*1453 FILLER_15_166
*1454 FILLER_15_169
*1455 FILLER_15_175
*1456 FILLER_15_179
*1457 FILLER_15_189
*1458 FILLER_15_200
*1459 FILLER_15_214
*1460 FILLER_15_22
*1461 FILLER_15_222
*1462 FILLER_15_225
*1463 FILLER_15_230
*1464 FILLER_15_237
*1465 FILLER_15_241
*1466 FILLER_15_245
*1467 FILLER_15_253
*1468 FILLER_15_270
*1469 FILLER_15_277
*1470 FILLER_15_281
*1471 FILLER_15_293
*1472 FILLER_15_3
*1473 FILLER_15_34
*1474 FILLER_15_41
*1475 FILLER_15_50
*1476 FILLER_15_57
*1477 FILLER_15_65
*1478 FILLER_15_73
*1479 FILLER_15_79
*1480 FILLER_15_89
*1481 FILLER_15_96
*1482 FILLER_16_105
*1483 FILLER_16_113
*1484 FILLER_16_122
*1485 FILLER_16_132
*1486 FILLER_16_141
*1487 FILLER_16_15
*1488 FILLER_16_159
*1489 FILLER_16_168
*1490 FILLER_16_180
*1491 FILLER_16_188
*1492 FILLER_16_197
*1493 FILLER_16_203
*1494 FILLER_16_211
*1495 FILLER_16_218
*1496 FILLER_16_222
*1497 FILLER_16_229
*1498 FILLER_16_239
*1499 FILLER_16_249
*1500 FILLER_16_253
*1501 FILLER_16_26
*1502 FILLER_16_277
*1503 FILLER_16_29
*1504 FILLER_16_297
*1505 FILLER_16_3
*1506 FILLER_16_35
*1507 FILLER_16_43
*1508 FILLER_16_55
*1509 FILLER_16_63
*1510 FILLER_16_75
*1511 FILLER_16_82
*1512 FILLER_16_85
*1513 FILLER_16_92
*1514 FILLER_17_108
*1515 FILLER_17_113
*1516 FILLER_17_119
*1517 FILLER_17_12
*1518 FILLER_17_136
*1519 FILLER_17_140
*1520 FILLER_17_145
*1521 FILLER_17_155
*1522 FILLER_17_166
*1523 FILLER_17_169
*1524 FILLER_17_176
*1525 FILLER_17_184
*1526 FILLER_17_190
*1527 FILLER_17_199
*1528 FILLER_17_208
*1529 FILLER_17_217
*1530 FILLER_17_223
*1531 FILLER_17_225
*1532 FILLER_17_233
*1533 FILLER_17_241
*1534 FILLER_17_261
*1535 FILLER_17_268
*1536 FILLER_17_275
*1537 FILLER_17_279
*1538 FILLER_17_281
*1539 FILLER_17_293
*1540 FILLER_17_3
*1541 FILLER_17_36
*1542 FILLER_17_42
*1543 FILLER_17_48
*1544 FILLER_17_57
*1545 FILLER_17_71
*1546 FILLER_17_84
*1547 FILLER_17_91
*1548 FILLER_17_99
*1549 FILLER_18_104
*1550 FILLER_18_113
*1551 FILLER_18_126
*1552 FILLER_18_13
*1553 FILLER_18_130
*1554 FILLER_18_137
*1555 FILLER_18_141
*1556 FILLER_18_149
*1557 FILLER_18_158
*1558 FILLER_18_167
*1559 FILLER_18_177
*1560 FILLER_18_184
*1561 FILLER_18_194
*1562 FILLER_18_197
*1563 FILLER_18_204
*1564 FILLER_18_213
*1565 FILLER_18_222
*1566 FILLER_18_226
*1567 FILLER_18_230
*1568 FILLER_18_250
*1569 FILLER_18_253
*1570 FILLER_18_257
*1571 FILLER_18_26
*1572 FILLER_18_274
*1573 FILLER_18_29
*1574 FILLER_18_296
*1575 FILLER_18_3
*1576 FILLER_18_37
*1577 FILLER_18_43
*1578 FILLER_18_51
*1579 FILLER_18_59
*1580 FILLER_18_66
*1581 FILLER_18_72
*1582 FILLER_18_82
*1583 FILLER_18_85
*1584 FILLER_18_89
*1585 FILLER_18_96
*1586 FILLER_19_104
*1587 FILLER_19_113
*1588 FILLER_19_12
*1589 FILLER_19_131
*1590 FILLER_19_145
*1591 FILLER_19_153
*1592 FILLER_19_166
*1593 FILLER_19_169
*1594 FILLER_19_173
*1595 FILLER_19_179
*1596 FILLER_19_187
*1597 FILLER_19_194
*1598 FILLER_19_198
*1599 FILLER_19_202
*1600 FILLER_19_21
*1601 FILLER_19_222
*1602 FILLER_19_225
*1603 FILLER_19_231
*1604 FILLER_19_237
*1605 FILLER_19_241
*1606 FILLER_19_261
*1607 FILLER_19_27
*1608 FILLER_19_273
*1609 FILLER_19_278
*1610 FILLER_19_281
*1611 FILLER_19_285
*1612 FILLER_19_292
*1613 FILLER_19_298
*1614 FILLER_19_3
*1615 FILLER_19_32
*1616 FILLER_19_40
*1617 FILLER_19_50
*1618 FILLER_19_57
*1619 FILLER_19_66
*1620 FILLER_19_77
*1621 FILLER_19_90
*1622 FILLER_1_110
*1623 FILLER_1_113
*1624 FILLER_1_118
*1625 FILLER_1_128
*1626 FILLER_1_148
*1627 FILLER_1_152
*1628 FILLER_1_159
*1629 FILLER_1_166
*1630 FILLER_1_169
*1631 FILLER_1_187
*1632 FILLER_1_207
*1633 FILLER_1_214
*1634 FILLER_1_221
*1635 FILLER_1_225
*1636 FILLER_1_243
*1637 FILLER_1_263
*1638 FILLER_1_27
*1639 FILLER_1_270
*1640 FILLER_1_277
*1641 FILLER_1_281
*1642 FILLER_1_293
*1643 FILLER_1_3
*1644 FILLER_1_47
*1645 FILLER_1_54
*1646 FILLER_1_57
*1647 FILLER_1_63
*1648 FILLER_1_70
*1649 FILLER_1_90
*1650 FILLER_20_106
*1651 FILLER_20_113
*1652 FILLER_20_125
*1653 FILLER_20_132
*1654 FILLER_20_14
*1655 FILLER_20_141
*1656 FILLER_20_147
*1657 FILLER_20_153
*1658 FILLER_20_162
*1659 FILLER_20_166
*1660 FILLER_20_172
*1661 FILLER_20_181
*1662 FILLER_20_185
*1663 FILLER_20_191
*1664 FILLER_20_195
*1665 FILLER_20_197
*1666 FILLER_20_204
*1667 FILLER_20_217
*1668 FILLER_20_22
*1669 FILLER_20_227
*1670 FILLER_20_237
*1671 FILLER_20_247
*1672 FILLER_20_251
*1673 FILLER_20_253
*1674 FILLER_20_258
*1675 FILLER_20_26
*1676 FILLER_20_270
*1677 FILLER_20_278
*1678 FILLER_20_29
*1679 FILLER_20_297
*1680 FILLER_20_3
*1681 FILLER_20_35
*1682 FILLER_20_42
*1683 FILLER_20_53
*1684 FILLER_20_60
*1685 FILLER_20_69
*1686 FILLER_20_73
*1687 FILLER_20_82
*1688 FILLER_20_85
*1689 FILLER_20_90
*1690 FILLER_20_98
*1691 FILLER_21_108
*1692 FILLER_21_113
*1693 FILLER_21_120
*1694 FILLER_21_140
*1695 FILLER_21_147
*1696 FILLER_21_160
*1697 FILLER_21_169
*1698 FILLER_21_179
*1699 FILLER_21_188
*1700 FILLER_21_19
*1701 FILLER_21_192
*1702 FILLER_21_200
*1703 FILLER_21_211
*1704 FILLER_21_222
*1705 FILLER_21_225
*1706 FILLER_21_236
*1707 FILLER_21_245
*1708 FILLER_21_253
*1709 FILLER_21_261
*1710 FILLER_21_278
*1711 FILLER_21_28
*1712 FILLER_21_281
*1713 FILLER_21_289
*1714 FILLER_21_296
*1715 FILLER_21_3
*1716 FILLER_21_34
*1717 FILLER_21_45
*1718 FILLER_21_49
*1719 FILLER_21_54
*1720 FILLER_21_57
*1721 FILLER_21_72
*1722 FILLER_21_82
*1723 FILLER_21_89
*1724 FILLER_21_99
*1725 FILLER_22_101
*1726 FILLER_22_111
*1727 FILLER_22_120
*1728 FILLER_22_135
*1729 FILLER_22_139
*1730 FILLER_22_141
*1731 FILLER_22_149
*1732 FILLER_22_157
*1733 FILLER_22_165
*1734 FILLER_22_173
*1735 FILLER_22_182
*1736 FILLER_22_193
*1737 FILLER_22_197
*1738 FILLER_22_213
*1739 FILLER_22_222
*1740 FILLER_22_23
*1741 FILLER_22_230
*1742 FILLER_22_237
*1743 FILLER_22_243
*1744 FILLER_22_250
*1745 FILLER_22_253
*1746 FILLER_22_27
*1747 FILLER_22_271
*1748 FILLER_22_29
*1749 FILLER_22_291
*1750 FILLER_22_3
*1751 FILLER_22_33
*1752 FILLER_22_38
*1753 FILLER_22_42
*1754 FILLER_22_50
*1755 FILLER_22_61
*1756 FILLER_22_71
*1757 FILLER_22_82
*1758 FILLER_22_85
*1759 FILLER_22_94
*1760 FILLER_23_100
*1761 FILLER_23_104
*1762 FILLER_23_110
*1763 FILLER_23_113
*1764 FILLER_23_13
*1765 FILLER_23_131
*1766 FILLER_23_138
*1767 FILLER_23_152
*1768 FILLER_23_161
*1769 FILLER_23_167
*1770 FILLER_23_169
*1771 FILLER_23_182
*1772 FILLER_23_191
*1773 FILLER_23_200
*1774 FILLER_23_21
*1775 FILLER_23_212
*1776 FILLER_23_218
*1777 FILLER_23_222
*1778 FILLER_23_225
*1779 FILLER_23_235
*1780 FILLER_23_245
*1781 FILLER_23_252
*1782 FILLER_23_260
*1783 FILLER_23_278
*1784 FILLER_23_281
*1785 FILLER_23_289
*1786 FILLER_23_296
*1787 FILLER_23_3
*1788 FILLER_23_30
*1789 FILLER_23_50
*1790 FILLER_23_57
*1791 FILLER_23_66
*1792 FILLER_23_84
*1793 FILLER_23_91
*1794 FILLER_24_103
*1795 FILLER_24_114
*1796 FILLER_24_12
*1797 FILLER_24_121
*1798 FILLER_24_136
*1799 FILLER_24_141
*1800 FILLER_24_149
*1801 FILLER_24_159
*1802 FILLER_24_172
*1803 FILLER_24_185
*1804 FILLER_24_194
*1805 FILLER_24_197
*1806 FILLER_24_20
*1807 FILLER_24_205
*1808 FILLER_24_213
*1809 FILLER_24_224
*1810 FILLER_24_228
*1811 FILLER_24_235
*1812 FILLER_24_245
*1813 FILLER_24_251
*1814 FILLER_24_253
*1815 FILLER_24_258
*1816 FILLER_24_26
*1817 FILLER_24_265
*1818 FILLER_24_289
*1819 FILLER_24_29
*1820 FILLER_24_297
*1821 FILLER_24_3
*1822 FILLER_24_38
*1823 FILLER_24_49
*1824 FILLER_24_61
*1825 FILLER_24_69
*1826 FILLER_24_74
*1827 FILLER_24_82
*1828 FILLER_24_85
*1829 FILLER_24_92
*1830 FILLER_25_110
*1831 FILLER_25_113
*1832 FILLER_25_120
*1833 FILLER_25_127
*1834 FILLER_25_133
*1835 FILLER_25_14
*1836 FILLER_25_143
*1837 FILLER_25_151
*1838 FILLER_25_158
*1839 FILLER_25_165
*1840 FILLER_25_169