*SPEF "ieee 1481-1999"
*DESIGN "htfab_microtapeout"
*DATE "11:11:11 Fri 11 11, 1111"
*VENDOR "OpenRCX"
*PROGRAM "Parallel Extraction"
*VERSION "1.0"
*DESIGN_FLOW "NAME_SCOPE LOCAL" "PIN_CAP NONE"
*DIVIDER /
*DELIMITER :
*BUS_DELIMITER []
*T_UNIT 1 NS
*C_UNIT 1 PF
*R_UNIT 1 OHM
*L_UNIT 1 HENRY

*NAME_MAP
*1 io_in[0]
*2 io_in[1]
*3 io_in[2]
*4 io_in[3]
*5 io_in[4]
*6 io_in[5]
*7 io_in[6]
*8 io_in[7]
*9 io_out[0]
*10 io_out[1]
*11 io_out[2]
*12 io_out[3]
*13 io_out[4]
*14 io_out[5]
*15 io_out[6]
*16 io_out[7]
*19 _000_
*20 _001_
*21 _002_
*22 _003_
*23 _004_
*24 _005_
*25 _006_
*26 _007_
*27 _008_
*28 _009_
*29 _010_
*30 _011_
*31 _012_
*32 _013_
*33 _014_
*34 _015_
*35 _016_
*36 _017_
*37 _018_
*38 _019_
*39 _020_
*40 _021_
*41 _022_
*42 _023_
*43 _024_
*44 _025_
*45 _026_
*46 _027_
*47 _028_
*48 _029_
*49 _030_
*50 _031_
*51 _032_
*52 _033_
*53 _034_
*54 _035_
*55 _036_
*56 _037_
*57 _038_
*58 _039_
*59 _040_
*60 _041_
*61 _042_
*62 _043_
*63 _044_
*64 _045_
*65 _046_
*66 _047_
*67 _048_
*68 _049_
*69 _050_
*70 _051_
*71 _052_
*72 _053_
*73 _054_
*74 _055_
*75 _056_
*76 _057_
*77 _058_
*78 _059_
*79 _060_
*80 _061_
*81 _062_
*82 _063_
*83 _064_
*84 _065_
*85 _066_
*86 _067_
*87 _068_
*88 _069_
*89 _070_
*90 _071_
*91 _072_
*92 _073_
*93 _074_
*94 _075_
*95 _076_
*96 _077_
*97 _078_
*98 _079_
*99 _080_
*100 _081_
*101 _082_
*102 _083_
*103 _084_
*104 _085_
*105 _086_
*106 _087_
*107 _088_
*108 _089_
*109 _090_
*110 _091_
*111 _092_
*112 _093_
*113 _094_
*114 _095_
*115 _096_
*116 _097_
*117 _098_
*118 _099_
*119 _100_
*120 _101_
*121 _102_
*122 _103_
*123 _104_
*124 _105_
*125 _106_
*126 _107_
*127 _108_
*128 _109_
*129 _110_
*130 _111_
*131 _112_
*132 _113_
*133 _114_
*134 _115_
*135 _116_
*136 _117_
*137 _118_
*138 _119_
*139 _120_
*140 _121_
*141 _122_
*142 _123_
*143 _124_
*144 _125_
*145 _126_
*146 _127_
*147 _128_
*148 _129_
*149 _130_
*150 _131_
*151 _132_
*152 _133_
*153 _134_
*154 _135_
*155 _136_
*156 _137_
*157 _138_
*158 _139_
*159 _140_
*160 _141_
*161 _142_
*162 _143_
*163 _144_
*164 _145_
*165 _146_
*166 _147_
*167 _148_
*168 _149_
*169 _150_
*170 _151_
*171 _152_
*172 _153_
*173 _154_
*174 _155_
*175 _156_
*176 _157_
*177 _158_
*178 _159_
*179 _160_
*180 _161_
*181 _162_
*182 _163_
*183 _164_
*184 _165_
*185 _166_
*186 _167_
*187 _168_
*188 _169_
*189 _170_
*190 _171_
*191 _172_
*192 _173_
*193 _174_
*194 _175_
*195 _176_
*196 _177_
*197 _178_
*198 _179_
*199 _180_
*200 _181_
*201 _182_
*202 _183_
*203 _184_
*204 _185_
*205 _186_
*206 _187_
*207 _188_
*208 _189_
*209 _190_
*210 _191_
*211 _192_
*212 _193_
*213 _194_
*214 _195_
*215 _196_
*216 _197_
*217 _198_
*218 _199_
*219 _200_
*220 _201_
*221 _202_
*222 _203_
*223 _204_
*224 _205_
*225 _206_
*226 _207_
*227 _208_
*228 _209_
*229 _210_
*230 _211_
*231 _212_
*232 _213_
*233 _214_
*234 _215_
*235 _216_
*236 _217_
*237 _218_
*238 _219_
*239 _220_
*240 _221_
*241 _222_
*242 _223_
*243 _224_
*244 _225_
*245 _226_
*246 _227_
*247 _228_
*248 _229_
*249 _230_
*250 _231_
*251 _232_
*252 _233_
*253 _234_
*254 _235_
*255 _236_
*256 _237_
*257 _238_
*258 _239_
*259 _240_
*260 _241_
*261 _242_
*262 _243_
*263 _244_
*264 _245_
*265 _246_
*266 _247_
*267 _248_
*268 _249_
*269 _250_
*270 _251_
*271 _252_
*272 _253_
*273 _254_
*274 _255_
*275 _256_
*276 _257_
*277 _258_
*278 _259_
*279 _260_
*280 _261_
*281 _262_
*282 _263_
*283 _264_
*284 _265_
*285 _266_
*286 _267_
*287 _268_
*288 _269_
*289 _270_
*290 _271_
*291 _272_
*292 _273_
*293 _274_
*294 _275_
*295 _276_
*296 _277_
*297 _278_
*298 _279_
*299 _280_
*300 _281_
*301 _282_
*302 _283_
*303 _284_
*304 _285_
*305 _286_
*306 _287_
*307 _288_
*308 _289_
*309 _290_
*310 _291_
*311 _292_
*312 _293_
*313 _294_
*314 _295_
*315 _296_
*316 _297_
*317 _298_
*318 _299_
*319 _300_
*320 _301_
*321 _302_
*322 _303_
*323 _304_
*324 _305_
*325 _306_
*326 _307_
*327 _308_
*328 _309_
*329 _310_
*330 _311_
*331 _312_
*332 _313_
*333 _314_
*334 _315_
*335 _316_
*336 _317_
*337 _318_
*338 _319_
*339 _320_
*340 _321_
*341 _322_
*342 _323_
*343 _324_
*344 _325_
*345 _326_
*346 _327_
*347 _328_
*348 _329_
*349 _330_
*350 _331_
*351 _332_
*352 _333_
*353 _334_
*354 _335_
*355 _336_
*356 _337_
*357 _338_
*358 _339_
*359 _340_
*360 _341_
*361 _342_
*362 _343_
*363 _344_
*364 _345_
*365 _346_
*366 _347_
*367 _348_
*368 _349_
*369 _350_
*370 _351_
*371 _352_
*372 _353_
*373 _354_
*374 _355_
*375 _356_
*376 _357_
*377 _358_
*378 _359_
*379 _360_
*380 _361_
*381 _362_
*382 _363_
*383 _364_
*384 _365_
*385 _366_
*386 _367_
*387 _368_
*388 _369_
*389 _370_
*390 _371_
*391 _372_
*392 _373_
*393 _374_
*394 _375_
*395 _376_
*396 _377_
*397 _378_
*398 _379_
*399 _380_
*400 _381_
*401 _382_
*402 _383_
*403 _384_
*404 _385_
*405 _386_
*406 clknet_0_io_in[0]
*407 clknet_1_0__leaf_io_in[0]
*408 clknet_1_1__leaf_io_in[0]
*409 cm_inst\.cc_inst\.in\[0\]
*410 cm_inst\.cc_inst\.in\[1\]
*411 cm_inst\.cc_inst\.in\[2\]
*412 cm_inst\.cc_inst\.in\[3\]
*413 cm_inst\.cc_inst\.in\[4\]
*414 cm_inst\.cc_inst\.in\[5\]
*415 cm_inst\.cc_inst\.out_notouch_\[0\]
*416 cm_inst\.cc_inst\.out_notouch_\[100\]
*417 cm_inst\.cc_inst\.out_notouch_\[101\]
*418 cm_inst\.cc_inst\.out_notouch_\[102\]
*419 cm_inst\.cc_inst\.out_notouch_\[103\]
*420 cm_inst\.cc_inst\.out_notouch_\[104\]
*421 cm_inst\.cc_inst\.out_notouch_\[105\]
*422 cm_inst\.cc_inst\.out_notouch_\[106\]
*423 cm_inst\.cc_inst\.out_notouch_\[107\]
*424 cm_inst\.cc_inst\.out_notouch_\[108\]
*425 cm_inst\.cc_inst\.out_notouch_\[109\]
*426 cm_inst\.cc_inst\.out_notouch_\[10\]
*427 cm_inst\.cc_inst\.out_notouch_\[110\]
*428 cm_inst\.cc_inst\.out_notouch_\[111\]
*429 cm_inst\.cc_inst\.out_notouch_\[112\]
*430 cm_inst\.cc_inst\.out_notouch_\[113\]
*431 cm_inst\.cc_inst\.out_notouch_\[114\]
*432 cm_inst\.cc_inst\.out_notouch_\[115\]
*433 cm_inst\.cc_inst\.out_notouch_\[116\]
*434 cm_inst\.cc_inst\.out_notouch_\[117\]
*435 cm_inst\.cc_inst\.out_notouch_\[118\]
*436 cm_inst\.cc_inst\.out_notouch_\[119\]
*437 cm_inst\.cc_inst\.out_notouch_\[11\]
*438 cm_inst\.cc_inst\.out_notouch_\[120\]
*439 cm_inst\.cc_inst\.out_notouch_\[121\]
*440 cm_inst\.cc_inst\.out_notouch_\[122\]
*441 cm_inst\.cc_inst\.out_notouch_\[123\]
*442 cm_inst\.cc_inst\.out_notouch_\[124\]
*443 cm_inst\.cc_inst\.out_notouch_\[125\]
*444 cm_inst\.cc_inst\.out_notouch_\[126\]
*445 cm_inst\.cc_inst\.out_notouch_\[127\]
*446 cm_inst\.cc_inst\.out_notouch_\[128\]
*447 cm_inst\.cc_inst\.out_notouch_\[129\]
*448 cm_inst\.cc_inst\.out_notouch_\[12\]
*449 cm_inst\.cc_inst\.out_notouch_\[130\]
*450 cm_inst\.cc_inst\.out_notouch_\[131\]
*451 cm_inst\.cc_inst\.out_notouch_\[132\]
*452 cm_inst\.cc_inst\.out_notouch_\[133\]
*453 cm_inst\.cc_inst\.out_notouch_\[134\]
*454 cm_inst\.cc_inst\.out_notouch_\[135\]
*455 cm_inst\.cc_inst\.out_notouch_\[136\]
*456 cm_inst\.cc_inst\.out_notouch_\[137\]
*457 cm_inst\.cc_inst\.out_notouch_\[138\]
*458 cm_inst\.cc_inst\.out_notouch_\[139\]
*459 cm_inst\.cc_inst\.out_notouch_\[13\]
*460 cm_inst\.cc_inst\.out_notouch_\[140\]
*461 cm_inst\.cc_inst\.out_notouch_\[141\]
*462 cm_inst\.cc_inst\.out_notouch_\[142\]
*463 cm_inst\.cc_inst\.out_notouch_\[143\]
*464 cm_inst\.cc_inst\.out_notouch_\[144\]
*465 cm_inst\.cc_inst\.out_notouch_\[145\]
*466 cm_inst\.cc_inst\.out_notouch_\[146\]
*467 cm_inst\.cc_inst\.out_notouch_\[147\]
*468 cm_inst\.cc_inst\.out_notouch_\[148\]
*469 cm_inst\.cc_inst\.out_notouch_\[149\]
*470 cm_inst\.cc_inst\.out_notouch_\[14\]
*471 cm_inst\.cc_inst\.out_notouch_\[150\]
*472 cm_inst\.cc_inst\.out_notouch_\[151\]
*473 cm_inst\.cc_inst\.out_notouch_\[152\]
*474 cm_inst\.cc_inst\.out_notouch_\[153\]
*475 cm_inst\.cc_inst\.out_notouch_\[154\]
*476 cm_inst\.cc_inst\.out_notouch_\[155\]
*477 cm_inst\.cc_inst\.out_notouch_\[156\]
*478 cm_inst\.cc_inst\.out_notouch_\[157\]
*479 cm_inst\.cc_inst\.out_notouch_\[158\]
*480 cm_inst\.cc_inst\.out_notouch_\[159\]
*481 cm_inst\.cc_inst\.out_notouch_\[15\]
*482 cm_inst\.cc_inst\.out_notouch_\[160\]
*483 cm_inst\.cc_inst\.out_notouch_\[161\]
*484 cm_inst\.cc_inst\.out_notouch_\[162\]
*485 cm_inst\.cc_inst\.out_notouch_\[163\]
*486 cm_inst\.cc_inst\.out_notouch_\[164\]
*487 cm_inst\.cc_inst\.out_notouch_\[165\]
*488 cm_inst\.cc_inst\.out_notouch_\[166\]
*489 cm_inst\.cc_inst\.out_notouch_\[167\]
*490 cm_inst\.cc_inst\.out_notouch_\[168\]
*491 cm_inst\.cc_inst\.out_notouch_\[169\]
*492 cm_inst\.cc_inst\.out_notouch_\[16\]
*493 cm_inst\.cc_inst\.out_notouch_\[170\]
*494 cm_inst\.cc_inst\.out_notouch_\[171\]
*495 cm_inst\.cc_inst\.out_notouch_\[172\]
*496 cm_inst\.cc_inst\.out_notouch_\[173\]
*497 cm_inst\.cc_inst\.out_notouch_\[174\]
*498 cm_inst\.cc_inst\.out_notouch_\[175\]
*499 cm_inst\.cc_inst\.out_notouch_\[176\]
*500 cm_inst\.cc_inst\.out_notouch_\[177\]
*501 cm_inst\.cc_inst\.out_notouch_\[178\]
*502 cm_inst\.cc_inst\.out_notouch_\[179\]
*503 cm_inst\.cc_inst\.out_notouch_\[17\]
*504 cm_inst\.cc_inst\.out_notouch_\[180\]
*505 cm_inst\.cc_inst\.out_notouch_\[181\]
*506 cm_inst\.cc_inst\.out_notouch_\[182\]
*507 cm_inst\.cc_inst\.out_notouch_\[183\]
*508 cm_inst\.cc_inst\.out_notouch_\[184\]
*509 cm_inst\.cc_inst\.out_notouch_\[185\]
*510 cm_inst\.cc_inst\.out_notouch_\[186\]
*511 cm_inst\.cc_inst\.out_notouch_\[187\]
*512 cm_inst\.cc_inst\.out_notouch_\[188\]
*513 cm_inst\.cc_inst\.out_notouch_\[189\]
*514 cm_inst\.cc_inst\.out_notouch_\[18\]
*515 cm_inst\.cc_inst\.out_notouch_\[190\]
*516 cm_inst\.cc_inst\.out_notouch_\[191\]
*517 cm_inst\.cc_inst\.out_notouch_\[192\]
*518 cm_inst\.cc_inst\.out_notouch_\[193\]
*519 cm_inst\.cc_inst\.out_notouch_\[194\]
*520 cm_inst\.cc_inst\.out_notouch_\[195\]
*521 cm_inst\.cc_inst\.out_notouch_\[196\]
*522 cm_inst\.cc_inst\.out_notouch_\[197\]
*523 cm_inst\.cc_inst\.out_notouch_\[198\]
*524 cm_inst\.cc_inst\.out_notouch_\[199\]
*525 cm_inst\.cc_inst\.out_notouch_\[19\]
*526 cm_inst\.cc_inst\.out_notouch_\[1\]
*527 cm_inst\.cc_inst\.out_notouch_\[200\]
*528 cm_inst\.cc_inst\.out_notouch_\[201\]
*529 cm_inst\.cc_inst\.out_notouch_\[202\]
*530 cm_inst\.cc_inst\.out_notouch_\[203\]
*531 cm_inst\.cc_inst\.out_notouch_\[204\]
*532 cm_inst\.cc_inst\.out_notouch_\[205\]
*533 cm_inst\.cc_inst\.out_notouch_\[206\]
*534 cm_inst\.cc_inst\.out_notouch_\[207\]
*535 cm_inst\.cc_inst\.out_notouch_\[208\]
*536 cm_inst\.cc_inst\.out_notouch_\[209\]
*537 cm_inst\.cc_inst\.out_notouch_\[20\]
*538 cm_inst\.cc_inst\.out_notouch_\[210\]
*539 cm_inst\.cc_inst\.out_notouch_\[211\]
*540 cm_inst\.cc_inst\.out_notouch_\[212\]
*541 cm_inst\.cc_inst\.out_notouch_\[213\]
*542 cm_inst\.cc_inst\.out_notouch_\[214\]
*543 cm_inst\.cc_inst\.out_notouch_\[215\]
*544 cm_inst\.cc_inst\.out_notouch_\[216\]
*545 cm_inst\.cc_inst\.out_notouch_\[217\]
*546 cm_inst\.cc_inst\.out_notouch_\[218\]
*547 cm_inst\.cc_inst\.out_notouch_\[219\]
*548 cm_inst\.cc_inst\.out_notouch_\[21\]
*549 cm_inst\.cc_inst\.out_notouch_\[220\]
*550 cm_inst\.cc_inst\.out_notouch_\[221\]
*551 cm_inst\.cc_inst\.out_notouch_\[222\]
*552 cm_inst\.cc_inst\.out_notouch_\[223\]
*553 cm_inst\.cc_inst\.out_notouch_\[224\]
*554 cm_inst\.cc_inst\.out_notouch_\[225\]
*555 cm_inst\.cc_inst\.out_notouch_\[226\]
*556 cm_inst\.cc_inst\.out_notouch_\[227\]
*557 cm_inst\.cc_inst\.out_notouch_\[228\]
*558 cm_inst\.cc_inst\.out_notouch_\[229\]
*559 cm_inst\.cc_inst\.out_notouch_\[22\]
*560 cm_inst\.cc_inst\.out_notouch_\[230\]
*561 cm_inst\.cc_inst\.out_notouch_\[231\]
*562 cm_inst\.cc_inst\.out_notouch_\[232\]
*563 cm_inst\.cc_inst\.out_notouch_\[233\]
*564 cm_inst\.cc_inst\.out_notouch_\[234\]
*565 cm_inst\.cc_inst\.out_notouch_\[235\]
*566 cm_inst\.cc_inst\.out_notouch_\[236\]
*567 cm_inst\.cc_inst\.out_notouch_\[237\]
*568 cm_inst\.cc_inst\.out_notouch_\[238\]
*569 cm_inst\.cc_inst\.out_notouch_\[239\]
*570 cm_inst\.cc_inst\.out_notouch_\[23\]
*571 cm_inst\.cc_inst\.out_notouch_\[240\]
*572 cm_inst\.cc_inst\.out_notouch_\[241\]
*573 cm_inst\.cc_inst\.out_notouch_\[242\]
*574 cm_inst\.cc_inst\.out_notouch_\[243\]
*575 cm_inst\.cc_inst\.out_notouch_\[244\]
*576 cm_inst\.cc_inst\.out_notouch_\[245\]
*577 cm_inst\.cc_inst\.out_notouch_\[246\]
*578 cm_inst\.cc_inst\.out_notouch_\[247\]
*579 cm_inst\.cc_inst\.out_notouch_\[248\]
*580 cm_inst\.cc_inst\.out_notouch_\[249\]
*581 cm_inst\.cc_inst\.out_notouch_\[24\]
*582 cm_inst\.cc_inst\.out_notouch_\[250\]
*583 cm_inst\.cc_inst\.out_notouch_\[251\]
*584 cm_inst\.cc_inst\.out_notouch_\[252\]
*585 cm_inst\.cc_inst\.out_notouch_\[253\]
*586 cm_inst\.cc_inst\.out_notouch_\[254\]
*587 cm_inst\.cc_inst\.out_notouch_\[255\]
*588 cm_inst\.cc_inst\.out_notouch_\[256\]
*589 cm_inst\.cc_inst\.out_notouch_\[257\]
*590 cm_inst\.cc_inst\.out_notouch_\[258\]
*591 cm_inst\.cc_inst\.out_notouch_\[259\]
*592 cm_inst\.cc_inst\.out_notouch_\[25\]
*593 cm_inst\.cc_inst\.out_notouch_\[260\]
*594 cm_inst\.cc_inst\.out_notouch_\[261\]
*595 cm_inst\.cc_inst\.out_notouch_\[262\]
*596 cm_inst\.cc_inst\.out_notouch_\[263\]
*597 cm_inst\.cc_inst\.out_notouch_\[264\]
*598 cm_inst\.cc_inst\.out_notouch_\[265\]
*599 cm_inst\.cc_inst\.out_notouch_\[266\]
*600 cm_inst\.cc_inst\.out_notouch_\[267\]
*601 cm_inst\.cc_inst\.out_notouch_\[268\]
*602 cm_inst\.cc_inst\.out_notouch_\[269\]
*603 cm_inst\.cc_inst\.out_notouch_\[26\]
*604 cm_inst\.cc_inst\.out_notouch_\[270\]
*605 cm_inst\.cc_inst\.out_notouch_\[271\]
*606 cm_inst\.cc_inst\.out_notouch_\[272\]
*607 cm_inst\.cc_inst\.out_notouch_\[273\]
*608 cm_inst\.cc_inst\.out_notouch_\[274\]
*609 cm_inst\.cc_inst\.out_notouch_\[275\]
*610 cm_inst\.cc_inst\.out_notouch_\[276\]
*611 cm_inst\.cc_inst\.out_notouch_\[277\]
*612 cm_inst\.cc_inst\.out_notouch_\[278\]
*613 cm_inst\.cc_inst\.out_notouch_\[279\]
*614 cm_inst\.cc_inst\.out_notouch_\[27\]
*615 cm_inst\.cc_inst\.out_notouch_\[280\]
*616 cm_inst\.cc_inst\.out_notouch_\[281\]
*617 cm_inst\.cc_inst\.out_notouch_\[282\]
*618 cm_inst\.cc_inst\.out_notouch_\[283\]
*619 cm_inst\.cc_inst\.out_notouch_\[284\]
*620 cm_inst\.cc_inst\.out_notouch_\[285\]
*621 cm_inst\.cc_inst\.out_notouch_\[286\]
*622 cm_inst\.cc_inst\.out_notouch_\[287\]
*623 cm_inst\.cc_inst\.out_notouch_\[288\]
*624 cm_inst\.cc_inst\.out_notouch_\[289\]
*625 cm_inst\.cc_inst\.out_notouch_\[28\]
*626 cm_inst\.cc_inst\.out_notouch_\[290\]
*627 cm_inst\.cc_inst\.out_notouch_\[291\]
*628 cm_inst\.cc_inst\.out_notouch_\[292\]
*629 cm_inst\.cc_inst\.out_notouch_\[293\]
*630 cm_inst\.cc_inst\.out_notouch_\[294\]
*631 cm_inst\.cc_inst\.out_notouch_\[295\]
*632 cm_inst\.cc_inst\.out_notouch_\[296\]
*633 cm_inst\.cc_inst\.out_notouch_\[297\]
*634 cm_inst\.cc_inst\.out_notouch_\[298\]
*635 cm_inst\.cc_inst\.out_notouch_\[299\]
*636 cm_inst\.cc_inst\.out_notouch_\[29\]
*637 cm_inst\.cc_inst\.out_notouch_\[2\]
*638 cm_inst\.cc_inst\.out_notouch_\[300\]
*639 cm_inst\.cc_inst\.out_notouch_\[301\]
*640 cm_inst\.cc_inst\.out_notouch_\[302\]
*641 cm_inst\.cc_inst\.out_notouch_\[303\]
*642 cm_inst\.cc_inst\.out_notouch_\[304\]
*643 cm_inst\.cc_inst\.out_notouch_\[305\]
*644 cm_inst\.cc_inst\.out_notouch_\[306\]
*645 cm_inst\.cc_inst\.out_notouch_\[307\]
*646 cm_inst\.cc_inst\.out_notouch_\[308\]
*647 cm_inst\.cc_inst\.out_notouch_\[309\]
*648 cm_inst\.cc_inst\.out_notouch_\[30\]
*649 cm_inst\.cc_inst\.out_notouch_\[310\]
*650 cm_inst\.cc_inst\.out_notouch_\[311\]
*651 cm_inst\.cc_inst\.out_notouch_\[312\]
*652 cm_inst\.cc_inst\.out_notouch_\[313\]
*653 cm_inst\.cc_inst\.out_notouch_\[314\]
*654 cm_inst\.cc_inst\.out_notouch_\[315\]
*655 cm_inst\.cc_inst\.out_notouch_\[316\]
*656 cm_inst\.cc_inst\.out_notouch_\[317\]
*657 cm_inst\.cc_inst\.out_notouch_\[318\]
*658 cm_inst\.cc_inst\.out_notouch_\[319\]
*659 cm_inst\.cc_inst\.out_notouch_\[31\]
*660 cm_inst\.cc_inst\.out_notouch_\[320\]
*661 cm_inst\.cc_inst\.out_notouch_\[321\]
*662 cm_inst\.cc_inst\.out_notouch_\[322\]
*663 cm_inst\.cc_inst\.out_notouch_\[323\]
*664 cm_inst\.cc_inst\.out_notouch_\[324\]
*665 cm_inst\.cc_inst\.out_notouch_\[325\]
*666 cm_inst\.cc_inst\.out_notouch_\[326\]
*667 cm_inst\.cc_inst\.out_notouch_\[327\]
*668 cm_inst\.cc_inst\.out_notouch_\[328\]
*669 cm_inst\.cc_inst\.out_notouch_\[329\]
*670 cm_inst\.cc_inst\.out_notouch_\[32\]
*671 cm_inst\.cc_inst\.out_notouch_\[330\]
*672 cm_inst\.cc_inst\.out_notouch_\[331\]
*673 cm_inst\.cc_inst\.out_notouch_\[332\]
*674 cm_inst\.cc_inst\.out_notouch_\[333\]
*675 cm_inst\.cc_inst\.out_notouch_\[334\]
*676 cm_inst\.cc_inst\.out_notouch_\[335\]
*677 cm_inst\.cc_inst\.out_notouch_\[336\]
*678 cm_inst\.cc_inst\.out_notouch_\[337\]
*679 cm_inst\.cc_inst\.out_notouch_\[338\]
*680 cm_inst\.cc_inst\.out_notouch_\[339\]
*681 cm_inst\.cc_inst\.out_notouch_\[33\]
*682 cm_inst\.cc_inst\.out_notouch_\[340\]
*683 cm_inst\.cc_inst\.out_notouch_\[341\]
*684 cm_inst\.cc_inst\.out_notouch_\[342\]
*685 cm_inst\.cc_inst\.out_notouch_\[343\]
*686 cm_inst\.cc_inst\.out_notouch_\[344\]
*687 cm_inst\.cc_inst\.out_notouch_\[345\]
*688 cm_inst\.cc_inst\.out_notouch_\[346\]
*689 cm_inst\.cc_inst\.out_notouch_\[347\]
*690 cm_inst\.cc_inst\.out_notouch_\[348\]
*691 cm_inst\.cc_inst\.out_notouch_\[349\]
*692 cm_inst\.cc_inst\.out_notouch_\[34\]
*693 cm_inst\.cc_inst\.out_notouch_\[350\]
*694 cm_inst\.cc_inst\.out_notouch_\[351\]
*695 cm_inst\.cc_inst\.out_notouch_\[352\]
*696 cm_inst\.cc_inst\.out_notouch_\[353\]
*697 cm_inst\.cc_inst\.out_notouch_\[354\]
*698 cm_inst\.cc_inst\.out_notouch_\[355\]
*699 cm_inst\.cc_inst\.out_notouch_\[356\]
*700 cm_inst\.cc_inst\.out_notouch_\[357\]
*701 cm_inst\.cc_inst\.out_notouch_\[358\]
*702 cm_inst\.cc_inst\.out_notouch_\[359\]
*703 cm_inst\.cc_inst\.out_notouch_\[35\]
*704 cm_inst\.cc_inst\.out_notouch_\[360\]
*705 cm_inst\.cc_inst\.out_notouch_\[361\]
*706 cm_inst\.cc_inst\.out_notouch_\[362\]
*707 cm_inst\.cc_inst\.out_notouch_\[363\]
*708 cm_inst\.cc_inst\.out_notouch_\[364\]
*709 cm_inst\.cc_inst\.out_notouch_\[365\]
*710 cm_inst\.cc_inst\.out_notouch_\[366\]
*711 cm_inst\.cc_inst\.out_notouch_\[367\]
*712 cm_inst\.cc_inst\.out_notouch_\[368\]
*713 cm_inst\.cc_inst\.out_notouch_\[369\]
*714 cm_inst\.cc_inst\.out_notouch_\[36\]
*715 cm_inst\.cc_inst\.out_notouch_\[370\]
*716 cm_inst\.cc_inst\.out_notouch_\[371\]
*717 cm_inst\.cc_inst\.out_notouch_\[372\]
*718 cm_inst\.cc_inst\.out_notouch_\[373\]
*719 cm_inst\.cc_inst\.out_notouch_\[374\]
*720 cm_inst\.cc_inst\.out_notouch_\[375\]
*721 cm_inst\.cc_inst\.out_notouch_\[376\]
*722 cm_inst\.cc_inst\.out_notouch_\[377\]
*723 cm_inst\.cc_inst\.out_notouch_\[378\]
*724 cm_inst\.cc_inst\.out_notouch_\[379\]
*725 cm_inst\.cc_inst\.out_notouch_\[37\]
*726 cm_inst\.cc_inst\.out_notouch_\[380\]
*727 cm_inst\.cc_inst\.out_notouch_\[381\]
*728 cm_inst\.cc_inst\.out_notouch_\[382\]
*729 cm_inst\.cc_inst\.out_notouch_\[383\]
*730 cm_inst\.cc_inst\.out_notouch_\[384\]
*731 cm_inst\.cc_inst\.out_notouch_\[385\]
*732 cm_inst\.cc_inst\.out_notouch_\[386\]
*733 cm_inst\.cc_inst\.out_notouch_\[387\]
*734 cm_inst\.cc_inst\.out_notouch_\[388\]
*735 cm_inst\.cc_inst\.out_notouch_\[389\]
*736 cm_inst\.cc_inst\.out_notouch_\[38\]
*737 cm_inst\.cc_inst\.out_notouch_\[390\]
*738 cm_inst\.cc_inst\.out_notouch_\[391\]
*739 cm_inst\.cc_inst\.out_notouch_\[392\]
*740 cm_inst\.cc_inst\.out_notouch_\[393\]
*741 cm_inst\.cc_inst\.out_notouch_\[394\]
*742 cm_inst\.cc_inst\.out_notouch_\[395\]
*743 cm_inst\.cc_inst\.out_notouch_\[396\]
*744 cm_inst\.cc_inst\.out_notouch_\[397\]
*745 cm_inst\.cc_inst\.out_notouch_\[398\]
*746 cm_inst\.cc_inst\.out_notouch_\[399\]
*747 cm_inst\.cc_inst\.out_notouch_\[39\]
*748 cm_inst\.cc_inst\.out_notouch_\[3\]
*749 cm_inst\.cc_inst\.out_notouch_\[400\]
*750 cm_inst\.cc_inst\.out_notouch_\[401\]
*751 cm_inst\.cc_inst\.out_notouch_\[402\]
*752 cm_inst\.cc_inst\.out_notouch_\[403\]
*753 cm_inst\.cc_inst\.out_notouch_\[404\]
*754 cm_inst\.cc_inst\.out_notouch_\[405\]
*755 cm_inst\.cc_inst\.out_notouch_\[406\]
*756 cm_inst\.cc_inst\.out_notouch_\[407\]
*757 cm_inst\.cc_inst\.out_notouch_\[408\]
*758 cm_inst\.cc_inst\.out_notouch_\[409\]
*759 cm_inst\.cc_inst\.out_notouch_\[40\]
*760 cm_inst\.cc_inst\.out_notouch_\[410\]
*761 cm_inst\.cc_inst\.out_notouch_\[411\]
*762 cm_inst\.cc_inst\.out_notouch_\[412\]
*763 cm_inst\.cc_inst\.out_notouch_\[413\]
*764 cm_inst\.cc_inst\.out_notouch_\[414\]
*765 cm_inst\.cc_inst\.out_notouch_\[415\]
*766 cm_inst\.cc_inst\.out_notouch_\[416\]
*767 cm_inst\.cc_inst\.out_notouch_\[417\]
*768 cm_inst\.cc_inst\.out_notouch_\[418\]
*769 cm_inst\.cc_inst\.out_notouch_\[419\]
*770 cm_inst\.cc_inst\.out_notouch_\[41\]
*771 cm_inst\.cc_inst\.out_notouch_\[420\]
*772 cm_inst\.cc_inst\.out_notouch_\[421\]
*773 cm_inst\.cc_inst\.out_notouch_\[422\]
*774 cm_inst\.cc_inst\.out_notouch_\[423\]
*775 cm_inst\.cc_inst\.out_notouch_\[424\]
*776 cm_inst\.cc_inst\.out_notouch_\[425\]
*777 cm_inst\.cc_inst\.out_notouch_\[426\]
*778 cm_inst\.cc_inst\.out_notouch_\[42\]
*779 cm_inst\.cc_inst\.out_notouch_\[43\]
*780 cm_inst\.cc_inst\.out_notouch_\[44\]
*781 cm_inst\.cc_inst\.out_notouch_\[45\]
*782 cm_inst\.cc_inst\.out_notouch_\[46\]
*783 cm_inst\.cc_inst\.out_notouch_\[47\]
*784 cm_inst\.cc_inst\.out_notouch_\[48\]
*785 cm_inst\.cc_inst\.out_notouch_\[49\]
*786 cm_inst\.cc_inst\.out_notouch_\[4\]
*787 cm_inst\.cc_inst\.out_notouch_\[50\]
*788 cm_inst\.cc_inst\.out_notouch_\[51\]
*789 cm_inst\.cc_inst\.out_notouch_\[52\]
*790 cm_inst\.cc_inst\.out_notouch_\[53\]
*791 cm_inst\.cc_inst\.out_notouch_\[54\]
*792 cm_inst\.cc_inst\.out_notouch_\[55\]
*793 cm_inst\.cc_inst\.out_notouch_\[56\]
*794 cm_inst\.cc_inst\.out_notouch_\[57\]
*795 cm_inst\.cc_inst\.out_notouch_\[58\]
*796 cm_inst\.cc_inst\.out_notouch_\[59\]
*797 cm_inst\.cc_inst\.out_notouch_\[5\]
*798 cm_inst\.cc_inst\.out_notouch_\[60\]
*799 cm_inst\.cc_inst\.out_notouch_\[61\]
*800 cm_inst\.cc_inst\.out_notouch_\[62\]
*801 cm_inst\.cc_inst\.out_notouch_\[63\]
*802 cm_inst\.cc_inst\.out_notouch_\[64\]
*803 cm_inst\.cc_inst\.out_notouch_\[65\]
*804 cm_inst\.cc_inst\.out_notouch_\[66\]
*805 cm_inst\.cc_inst\.out_notouch_\[67\]
*806 cm_inst\.cc_inst\.out_notouch_\[68\]
*807 cm_inst\.cc_inst\.out_notouch_\[69\]
*808 cm_inst\.cc_inst\.out_notouch_\[6\]
*809 cm_inst\.cc_inst\.out_notouch_\[70\]
*810 cm_inst\.cc_inst\.out_notouch_\[71\]
*811 cm_inst\.cc_inst\.out_notouch_\[72\]
*812 cm_inst\.cc_inst\.out_notouch_\[73\]
*813 cm_inst\.cc_inst\.out_notouch_\[74\]
*814 cm_inst\.cc_inst\.out_notouch_\[75\]
*815 cm_inst\.cc_inst\.out_notouch_\[76\]
*816 cm_inst\.cc_inst\.out_notouch_\[77\]
*817 cm_inst\.cc_inst\.out_notouch_\[78\]
*818 cm_inst\.cc_inst\.out_notouch_\[79\]
*819 cm_inst\.cc_inst\.out_notouch_\[7\]
*820 cm_inst\.cc_inst\.out_notouch_\[80\]
*821 cm_inst\.cc_inst\.out_notouch_\[81\]
*822 cm_inst\.cc_inst\.out_notouch_\[82\]
*823 cm_inst\.cc_inst\.out_notouch_\[83\]
*824 cm_inst\.cc_inst\.out_notouch_\[84\]
*825 cm_inst\.cc_inst\.out_notouch_\[85\]
*826 cm_inst\.cc_inst\.out_notouch_\[86\]
*827 cm_inst\.cc_inst\.out_notouch_\[87\]
*828 cm_inst\.cc_inst\.out_notouch_\[88\]
*829 cm_inst\.cc_inst\.out_notouch_\[89\]
*830 cm_inst\.cc_inst\.out_notouch_\[8\]
*831 cm_inst\.cc_inst\.out_notouch_\[90\]
*832 cm_inst\.cc_inst\.out_notouch_\[91\]
*833 cm_inst\.cc_inst\.out_notouch_\[92\]
*834 cm_inst\.cc_inst\.out_notouch_\[93\]
*835 cm_inst\.cc_inst\.out_notouch_\[94\]
*836 cm_inst\.cc_inst\.out_notouch_\[95\]
*837 cm_inst\.cc_inst\.out_notouch_\[96\]
*838 cm_inst\.cc_inst\.out_notouch_\[97\]
*839 cm_inst\.cc_inst\.out_notouch_\[98\]
*840 cm_inst\.cc_inst\.out_notouch_\[99\]
*841 cm_inst\.cc_inst\.out_notouch_\[9\]
*842 cm_inst\.page\[0\]
*843 cm_inst\.page\[1\]
*844 cm_inst\.page\[2\]
*845 cm_inst\.page\[3\]
*846 cm_inst\.page\[4\]
*847 cm_inst\.page\[5\]
*848 net1
*849 net10
*850 net100
*851 net101
*852 net102
*853 net103
*854 net104
*855 net105
*856 net106
*857 net107
*858 net108
*859 net109
*860 net11
*861 net110
*862 net111
*863 net112
*864 net113
*865 net114
*866 net115
*867 net116
*868 net117
*869 net118
*870 net119
*871 net12
*872 net120
*873 net121
*874 net122
*875 net123
*876 net124
*877 net125
*878 net126
*879 net127
*880 net128
*881 net129
*882 net13
*883 net130
*884 net131
*885 net132
*886 net133
*887 net134
*888 net135
*889 net136
*890 net137
*891 net138
*892 net139
*893 net14
*894 net140
*895 net141
*896 net142
*897 net143
*898 net144
*899 net145
*900 net146
*901 net147
*902 net148
*903 net149
*904 net15
*905 net150
*906 net151
*907 net152
*908 net153
*909 net154
*910 net155
*911 net156
*912 net157
*913 net158
*914 net159
*915 net16
*916 net160
*917 net161
*918 net162
*919 net163
*920 net164
*921 net165
*922 net166
*923 net167
*924 net168
*925 net169
*926 net17
*927 net170
*928 net171
*929 net172
*930 net173
*931 net174
*932 net175
*933 net176
*934 net177
*935 net178
*936 net18
*937 net19
*938 net2
*939 net20
*940 net21
*941 net22
*942 net23
*943 net24
*944 net25
*945 net26
*946 net27
*947 net28
*948 net29
*949 net3
*950 net30
*951 net31
*952 net32
*953 net33
*954 net34
*955 net35
*956 net36
*957 net37
*958 net38
*959 net39
*960 net4
*961 net40
*962 net41
*963 net42
*964 net43
*965 net44
*966 net45
*967 net46
*968 net47
*969 net48
*970 net49
*971 net5
*972 net50
*973 net51
*974 net52
*975 net53
*976 net54
*977 net55
*978 net56
*979 net57
*980 net58
*981 net59
*982 net6
*983 net60
*984 net61
*985 net62
*986 net63
*987 net64
*988 net65
*989 net66
*990 net67
*991 net68
*992 net69
*993 net7
*994 net70
*995 net71
*996 net72
*997 net73
*998 net74
*999 net75
*1000 net76
*1001 net77
*1002 net78
*1003 net79
*1004 net8
*1005 net80
*1006 net81
*1007 net82
*1008 net83
*1009 net84
*1010 net85
*1011 net86
*1012 net87
*1013 net88
*1014 net89
*1015 net9
*1016 net90
*1017 net91
*1018 net92
*1019 net93
*1020 net94
*1021 net95
*1022 net96
*1023 net97
*1024 net98
*1025 net99
*1026 ANTENNA_1
*1027 ANTENNA_10
*1028 ANTENNA_11
*1029 ANTENNA_2
*1030 ANTENNA_3
*1031 ANTENNA_4
*1032 ANTENNA_5
*1033 ANTENNA_6
*1034 ANTENNA_7
*1035 ANTENNA_8
*1036 ANTENNA_9
*1037 FILLER_0_109
*1038 FILLER_0_113
*1039 FILLER_0_126
*1040 FILLER_0_137
*1041 FILLER_0_141
*1042 FILLER_0_145
*1043 FILLER_0_152
*1044 FILLER_0_162
*1045 FILLER_0_169
*1046 FILLER_0_177
*1047 FILLER_0_187
*1048 FILLER_0_195
*1049 FILLER_0_197
*1050 FILLER_0_203
*1051 FILLER_0_211
*1052 FILLER_0_219
*1053 FILLER_0_223
*1054 FILLER_0_225
*1055 FILLER_0_237
*1056 FILLER_0_24
*1057 FILLER_0_249
*1058 FILLER_0_253
*1059 FILLER_0_265
*1060 FILLER_0_277
*1061 FILLER_0_281
*1062 FILLER_0_29
*1063 FILLER_0_293
*1064 FILLER_0_3
*1065 FILLER_0_48
*1066 FILLER_0_57
*1067 FILLER_0_75
*1068 FILLER_0_82
*1069 FILLER_0_85
*1070 FILLER_0_99
*1071 FILLER_10_124
*1072 FILLER_10_137
*1073 FILLER_10_14
*1074 FILLER_10_141
*1075 FILLER_10_156
*1076 FILLER_10_160
*1077 FILLER_10_174
*1078 FILLER_10_183
*1079 FILLER_10_194
*1080 FILLER_10_197
*1081 FILLER_10_220
*1082 FILLER_10_229
*1083 FILLER_10_237
*1084 FILLER_10_245
*1085 FILLER_10_251
*1086 FILLER_10_253
*1087 FILLER_10_26
*1088 FILLER_10_265
*1089 FILLER_10_272
*1090 FILLER_10_29
*1091 FILLER_10_297
*1092 FILLER_10_3
*1093 FILLER_10_48
*1094 FILLER_10_54
*1095 FILLER_10_61
*1096 FILLER_10_7
*1097 FILLER_10_74
*1098 FILLER_10_82
*1099 FILLER_10_85
*1100 FILLER_10_99
*1101 FILLER_11_100
*1102 FILLER_11_110
*1103 FILLER_11_113
*1104 FILLER_11_129
*1105 FILLER_11_14
*1106 FILLER_11_143
*1107 FILLER_11_155
*1108 FILLER_11_159
*1109 FILLER_11_166
*1110 FILLER_11_169
*1111 FILLER_11_181
*1112 FILLER_11_191
*1113 FILLER_11_216
*1114 FILLER_11_225
*1115 FILLER_11_229
*1116 FILLER_11_236
*1117 FILLER_11_244
*1118 FILLER_11_250
*1119 FILLER_11_254
*1120 FILLER_11_259
*1121 FILLER_11_265
*1122 FILLER_11_278
*1123 FILLER_11_281
*1124 FILLER_11_290
*1125 FILLER_11_298
*1126 FILLER_11_3
*1127 FILLER_11_54
*1128 FILLER_11_57
*1129 FILLER_11_65
*1130 FILLER_11_7
*1131 FILLER_11_75
*1132 FILLER_11_86
*1133 FILLER_11_96
*1134 FILLER_12_108
*1135 FILLER_12_126
*1136 FILLER_12_138
*1137 FILLER_12_141
*1138 FILLER_12_165
*1139 FILLER_12_178
*1140 FILLER_12_190
*1141 FILLER_12_197
*1142 FILLER_12_217
*1143 FILLER_12_229
*1144 FILLER_12_239
*1145 FILLER_12_248
*1146 FILLER_12_25
*1147 FILLER_12_253
*1148 FILLER_12_272
*1149 FILLER_12_29
*1150 FILLER_12_297
*1151 FILLER_12_3
*1152 FILLER_12_40
*1153 FILLER_12_44
*1154 FILLER_12_60
*1155 FILLER_12_68
*1156 FILLER_12_78
*1157 FILLER_12_85
*1158 FILLER_13_109
*1159 FILLER_13_113
*1160 FILLER_13_120
*1161 FILLER_13_134
*1162 FILLER_13_141
*1163 FILLER_13_15
*1164 FILLER_13_166
*1165 FILLER_13_169
*1166 FILLER_13_180
*1167 FILLER_13_192
*1168 FILLER_13_205
*1169 FILLER_13_209
*1170 FILLER_13_222
*1171 FILLER_13_225
*1172 FILLER_13_236
*1173 FILLER_13_245
*1174 FILLER_13_264
*1175 FILLER_13_278
*1176 FILLER_13_281
*1177 FILLER_13_289
*1178 FILLER_13_297
*1179 FILLER_13_3
*1180 FILLER_13_36
*1181 FILLER_13_49
*1182 FILLER_13_55
*1183 FILLER_13_57
*1184 FILLER_13_67
*1185 FILLER_13_73
*1186 FILLER_13_88
*1187 FILLER_13_96
*1188 FILLER_14_105
*1189 FILLER_14_13
*1190 FILLER_14_130
*1191 FILLER_14_138
*1192 FILLER_14_141
*1193 FILLER_14_147
*1194 FILLER_14_154
*1195 FILLER_14_167
*1196 FILLER_14_182
*1197 FILLER_14_193
*1198 FILLER_14_197
*1199 FILLER_14_203
*1200 FILLER_14_220
*1201 FILLER_14_228
*1202 FILLER_14_250
*1203 FILLER_14_253
*1204 FILLER_14_26
*1205 FILLER_14_277
*1206 FILLER_14_287
*1207 FILLER_14_29
*1208 FILLER_14_3
*1209 FILLER_14_52
*1210 FILLER_14_56
*1211 FILLER_14_60
*1212 FILLER_14_7
*1213 FILLER_14_82
*1214 FILLER_14_85
*1215 FILLER_14_93
*1216 FILLER_15_104
*1217 FILLER_15_113
*1218 FILLER_15_120
*1219 FILLER_15_132
*1220 FILLER_15_143
*1221 FILLER_15_15
*1222 FILLER_15_155
*1223 FILLER_15_166
*1224 FILLER_15_169
*1225 FILLER_15_190
*1226 FILLER_15_215
*1227 FILLER_15_222
*1228 FILLER_15_225
*1229 FILLER_15_248
*1230 FILLER_15_273
*1231 FILLER_15_279
*1232 FILLER_15_28
*1233 FILLER_15_281
*1234 FILLER_15_290
*1235 FILLER_15_298
*1236 FILLER_15_3
*1237 FILLER_15_54
*1238 FILLER_15_57
*1239 FILLER_15_65
*1240 FILLER_15_69
*1241 FILLER_15_92
*1242 FILLER_16_100
*1243 FILLER_16_122
*1244 FILLER_16_133
*1245 FILLER_16_139
*1246 FILLER_16_141
*1247 FILLER_16_15
*1248 FILLER_16_150
*1249 FILLER_16_175
*1250 FILLER_16_188
*1251 FILLER_16_197
*1252 FILLER_16_220
*1253 FILLER_16_245
*1254 FILLER_16_25
*1255 FILLER_16_251
*1256 FILLER_16_253
*1257 FILLER_16_269
*1258 FILLER_16_297
*1259 FILLER_16_3
*1260 FILLER_16_32
*1261 FILLER_16_36
*1262 FILLER_16_47