*SPEF "ieee 1481-1999"
*DESIGN "htfab_microtapeout"
*DATE "11:11:11 Fri 11 11, 1111"
*VENDOR "OpenRCX"
*PROGRAM "Parallel Extraction"
*VERSION "1.0"
*DESIGN_FLOW "NAME_SCOPE LOCAL" "PIN_CAP NONE"
*DIVIDER /
*DELIMITER :
*BUS_DELIMITER []
*T_UNIT 1 NS
*C_UNIT 1 PF
*R_UNIT 1 OHM
*L_UNIT 1 HENRY

*NAME_MAP
*1 io_in[0]
*2 io_in[1]
*3 io_in[2]
*4 io_in[3]
*5 io_in[4]
*6 io_in[5]
*7 io_in[6]
*8 io_in[7]
*9 io_out[0]
*10 io_out[1]
*11 io_out[2]
*12 io_out[3]
*13 io_out[4]
*14 io_out[5]
*15 io_out[6]
*16 io_out[7]
*19 _000_
*20 _001_
*21 _002_
*22 _003_
*23 _004_
*24 _005_
*25 _006_
*26 _007_
*27 _008_
*28 _009_
*29 _010_
*30 _011_
*31 _012_
*32 _013_
*33 _014_
*34 _015_
*35 _016_
*36 _017_
*37 _018_
*38 _019_
*39 _020_
*40 _021_
*41 _022_
*42 _023_
*43 _024_
*44 _025_
*45 _026_
*46 _027_
*47 _028_
*48 _029_
*49 _030_
*50 _031_
*51 _032_
*52 _033_
*53 _034_
*54 _035_
*55 _036_
*56 _037_
*57 _038_
*58 _039_
*59 _040_
*60 _041_
*61 _042_
*62 _043_
*63 _044_
*64 _045_
*65 _046_
*66 _047_
*67 _048_
*68 _049_
*69 _050_
*70 _051_
*71 _052_
*72 _053_
*73 _054_
*74 _055_
*75 _056_
*76 _057_
*77 _058_
*78 _059_
*79 _060_
*80 _061_
*81 _062_
*82 _063_
*83 _064_
*84 _065_
*85 _066_
*86 _067_
*87 _068_
*88 _069_
*89 _070_
*90 _071_
*91 _072_
*92 _073_
*93 _074_
*94 _075_
*95 _076_
*96 _077_
*97 _078_
*98 _079_
*99 _080_
*100 _081_
*101 _082_
*102 _083_
*103 _084_
*104 _085_
*105 _086_
*106 _087_
*107 _088_
*108 _089_
*109 _090_
*110 _091_
*111 _092_
*112 _093_
*113 _094_
*114 _095_
*115 _096_
*116 _097_
*117 _098_
*118 _099_
*119 _100_
*120 _101_
*121 _102_
*122 _103_
*123 _104_
*124 _105_
*125 _106_
*126 _107_
*127 _108_
*128 _109_
*129 _110_
*130 _111_
*131 _112_
*132 _113_
*133 _114_
*134 _115_
*135 _116_
*136 _117_
*137 _118_
*138 _119_
*139 _120_
*140 _121_
*141 _122_
*142 _123_
*143 _124_
*144 _125_
*145 _126_
*146 _127_
*147 _128_
*148 _129_
*149 _130_
*150 _131_
*151 _132_
*152 _133_
*153 _134_
*154 _135_
*155 _136_
*156 _137_
*157 _138_
*158 _139_
*159 _140_
*160 _141_
*161 _142_
*162 _143_
*163 _144_
*164 _145_
*165 _146_
*166 _147_
*167 _148_
*168 _149_
*169 _150_
*170 _151_
*171 _152_
*172 _153_
*173 _154_
*174 _155_
*175 _156_
*176 _157_
*177 _158_
*178 _159_
*179 _160_
*180 _161_
*181 _162_
*182 _163_
*183 _164_
*184 _165_
*185 _166_
*186 _167_
*187 _168_
*188 _169_
*189 _170_
*190 _171_
*191 _172_
*192 _173_
*193 _174_
*194 _175_
*195 _176_
*196 _177_
*197 _178_
*198 _179_
*199 _180_
*200 _181_
*201 _182_
*202 _183_
*203 _184_
*204 _185_
*205 _186_
*206 _187_
*207 _188_
*208 _189_
*209 _190_
*210 _191_
*211 _192_
*212 _193_
*213 _194_
*214 _195_
*215 _196_
*216 _197_
*217 _198_
*218 _199_
*219 _200_
*220 _201_
*221 _202_
*222 _203_
*223 _204_
*224 _205_
*225 _206_
*226 _207_
*227 _208_
*228 _209_
*229 _210_
*230 _211_
*231 _212_
*232 _213_
*233 _214_
*234 _215_
*235 _216_
*236 _217_
*237 _218_
*238 _219_
*239 _220_
*240 _221_
*241 _222_
*242 _223_
*243 _224_
*244 _225_
*245 _226_
*246 _227_
*247 _228_
*248 _229_
*249 _230_
*250 _231_
*251 _232_
*252 _233_
*253 _234_
*254 _235_
*255 _236_
*256 _237_
*257 _238_
*258 _239_
*259 _240_
*260 _241_
*261 _242_
*262 _243_
*263 _244_
*264 _245_
*265 _246_
*266 _247_
*267 _248_
*268 _249_
*269 _250_
*270 _251_
*271 _252_
*272 _253_
*273 _254_
*274 _255_
*275 _256_
*276 _257_
*277 _258_
*278 _259_
*279 _260_
*280 _261_
*281 _262_
*282 _263_
*283 _264_
*284 _265_
*285 _266_
*286 _267_
*287 _268_
*288 _269_
*289 _270_
*290 _271_
*291 _272_
*292 _273_
*293 _274_
*294 _275_
*295 _276_
*296 _277_
*297 _278_
*298 _279_
*299 _280_
*300 _281_
*301 _282_
*302 _283_
*303 _284_
*304 _285_
*305 _286_
*306 _287_
*307 _288_
*308 _289_
*309 _290_
*310 _291_
*311 _292_
*312 _293_
*313 _294_
*314 _295_
*315 _296_
*316 _297_
*317 _298_
*318 _299_
*319 _300_
*320 _301_
*321 _302_
*322 _303_
*323 _304_
*324 _305_
*325 _306_
*326 _307_
*327 _308_
*328 _309_
*329 _310_
*330 _311_
*331 _312_
*332 _313_
*333 _314_
*334 _315_
*335 _316_
*336 _317_
*337 _318_
*338 _319_
*339 _320_
*340 _321_
*341 _322_
*342 _323_
*343 _324_
*344 _325_
*345 _326_
*346 _327_
*347 _328_
*348 _329_
*349 _330_
*350 _331_
*351 _332_
*352 _333_
*353 _334_
*354 _335_
*355 _336_
*356 _337_
*357 _338_
*358 _339_
*359 _340_
*360 _341_
*361 _342_
*362 _343_
*363 _344_
*364 _345_
*365 _346_
*366 _347_
*367 _348_
*368 _349_
*369 _350_
*370 _351_
*371 _352_
*372 _353_
*373 _354_
*374 _355_
*375 _356_
*376 _357_
*377 _358_
*378 _359_
*379 _360_
*380 _361_
*381 _362_
*382 _363_
*383 _364_
*384 _365_
*385 _366_
*386 _367_
*387 _368_
*388 _369_
*389 _370_
*390 _371_
*391 _372_
*392 _373_
*393 _374_
*394 _375_
*395 _376_
*396 _377_
*397 _378_
*398 _379_
*399 _380_
*400 _381_
*401 _382_
*402 _383_
*403 _384_
*404 _385_
*405 _386_
*406 _387_
*407 _388_
*408 _389_
*409 _390_
*410 _391_
*411 _392_
*412 _393_
*413 _394_
*414 _395_
*415 _396_
*416 _397_
*417 _398_
*418 _399_
*419 _400_
*420 _401_
*421 _402_
*422 _403_
*423 _404_
*424 _405_
*425 _406_
*426 _407_
*427 _408_
*428 _409_
*429 _410_
*430 _411_
*431 _412_
*432 _413_
*433 _414_
*434 _415_
*435 _416_
*436 _417_
*437 _418_
*438 _419_
*439 _420_
*440 clknet_0_io_in[0]
*441 clknet_2_0__leaf_io_in[0]
*442 clknet_2_1__leaf_io_in[0]
*443 clknet_2_2__leaf_io_in[0]
*444 clknet_2_3__leaf_io_in[0]
*445 cm_inst\.cc_inst\.in\[0\]
*446 cm_inst\.cc_inst\.in\[1\]
*447 cm_inst\.cc_inst\.in\[2\]
*448 cm_inst\.cc_inst\.in\[3\]
*449 cm_inst\.cc_inst\.in\[4\]
*450 cm_inst\.cc_inst\.in\[5\]
*451 cm_inst\.cc_inst\.out_notouch_\[0\]
*452 cm_inst\.cc_inst\.out_notouch_\[100\]
*453 cm_inst\.cc_inst\.out_notouch_\[101\]
*454 cm_inst\.cc_inst\.out_notouch_\[102\]
*455 cm_inst\.cc_inst\.out_notouch_\[103\]
*456 cm_inst\.cc_inst\.out_notouch_\[104\]
*457 cm_inst\.cc_inst\.out_notouch_\[105\]
*458 cm_inst\.cc_inst\.out_notouch_\[106\]
*459 cm_inst\.cc_inst\.out_notouch_\[107\]
*460 cm_inst\.cc_inst\.out_notouch_\[108\]
*461 cm_inst\.cc_inst\.out_notouch_\[109\]
*462 cm_inst\.cc_inst\.out_notouch_\[10\]
*463 cm_inst\.cc_inst\.out_notouch_\[110\]
*464 cm_inst\.cc_inst\.out_notouch_\[111\]
*465 cm_inst\.cc_inst\.out_notouch_\[112\]
*466 cm_inst\.cc_inst\.out_notouch_\[113\]
*467 cm_inst\.cc_inst\.out_notouch_\[114\]
*468 cm_inst\.cc_inst\.out_notouch_\[115\]
*469 cm_inst\.cc_inst\.out_notouch_\[116\]
*470 cm_inst\.cc_inst\.out_notouch_\[117\]
*471 cm_inst\.cc_inst\.out_notouch_\[118\]
*472 cm_inst\.cc_inst\.out_notouch_\[119\]
*473 cm_inst\.cc_inst\.out_notouch_\[11\]
*474 cm_inst\.cc_inst\.out_notouch_\[120\]
*475 cm_inst\.cc_inst\.out_notouch_\[121\]
*476 cm_inst\.cc_inst\.out_notouch_\[122\]
*477 cm_inst\.cc_inst\.out_notouch_\[123\]
*478 cm_inst\.cc_inst\.out_notouch_\[124\]
*479 cm_inst\.cc_inst\.out_notouch_\[125\]
*480 cm_inst\.cc_inst\.out_notouch_\[126\]
*481 cm_inst\.cc_inst\.out_notouch_\[127\]
*482 cm_inst\.cc_inst\.out_notouch_\[128\]
*483 cm_inst\.cc_inst\.out_notouch_\[129\]
*484 cm_inst\.cc_inst\.out_notouch_\[12\]
*485 cm_inst\.cc_inst\.out_notouch_\[130\]
*486 cm_inst\.cc_inst\.out_notouch_\[131\]
*487 cm_inst\.cc_inst\.out_notouch_\[132\]
*488 cm_inst\.cc_inst\.out_notouch_\[133\]
*489 cm_inst\.cc_inst\.out_notouch_\[134\]
*490 cm_inst\.cc_inst\.out_notouch_\[135\]
*491 cm_inst\.cc_inst\.out_notouch_\[136\]
*492 cm_inst\.cc_inst\.out_notouch_\[137\]
*493 cm_inst\.cc_inst\.out_notouch_\[138\]
*494 cm_inst\.cc_inst\.out_notouch_\[139\]
*495 cm_inst\.cc_inst\.out_notouch_\[13\]
*496 cm_inst\.cc_inst\.out_notouch_\[140\]
*497 cm_inst\.cc_inst\.out_notouch_\[141\]
*498 cm_inst\.cc_inst\.out_notouch_\[142\]
*499 cm_inst\.cc_inst\.out_notouch_\[143\]
*500 cm_inst\.cc_inst\.out_notouch_\[144\]
*501 cm_inst\.cc_inst\.out_notouch_\[145\]
*502 cm_inst\.cc_inst\.out_notouch_\[146\]
*503 cm_inst\.cc_inst\.out_notouch_\[147\]
*504 cm_inst\.cc_inst\.out_notouch_\[148\]
*505 cm_inst\.cc_inst\.out_notouch_\[149\]
*506 cm_inst\.cc_inst\.out_notouch_\[14\]
*507 cm_inst\.cc_inst\.out_notouch_\[150\]
*508 cm_inst\.cc_inst\.out_notouch_\[151\]
*509 cm_inst\.cc_inst\.out_notouch_\[152\]
*510 cm_inst\.cc_inst\.out_notouch_\[153\]
*511 cm_inst\.cc_inst\.out_notouch_\[154\]
*512 cm_inst\.cc_inst\.out_notouch_\[155\]
*513 cm_inst\.cc_inst\.out_notouch_\[156\]
*514 cm_inst\.cc_inst\.out_notouch_\[157\]
*515 cm_inst\.cc_inst\.out_notouch_\[158\]
*516 cm_inst\.cc_inst\.out_notouch_\[159\]
*517 cm_inst\.cc_inst\.out_notouch_\[15\]
*518 cm_inst\.cc_inst\.out_notouch_\[160\]
*519 cm_inst\.cc_inst\.out_notouch_\[161\]
*520 cm_inst\.cc_inst\.out_notouch_\[162\]
*521 cm_inst\.cc_inst\.out_notouch_\[163\]
*522 cm_inst\.cc_inst\.out_notouch_\[164\]
*523 cm_inst\.cc_inst\.out_notouch_\[165\]
*524 cm_inst\.cc_inst\.out_notouch_\[166\]
*525 cm_inst\.cc_inst\.out_notouch_\[167\]
*526 cm_inst\.cc_inst\.out_notouch_\[168\]
*527 cm_inst\.cc_inst\.out_notouch_\[169\]
*528 cm_inst\.cc_inst\.out_notouch_\[16\]
*529 cm_inst\.cc_inst\.out_notouch_\[170\]
*530 cm_inst\.cc_inst\.out_notouch_\[171\]
*531 cm_inst\.cc_inst\.out_notouch_\[172\]
*532 cm_inst\.cc_inst\.out_notouch_\[173\]
*533 cm_inst\.cc_inst\.out_notouch_\[174\]
*534 cm_inst\.cc_inst\.out_notouch_\[175\]
*535 cm_inst\.cc_inst\.out_notouch_\[176\]
*536 cm_inst\.cc_inst\.out_notouch_\[177\]
*537 cm_inst\.cc_inst\.out_notouch_\[178\]
*538 cm_inst\.cc_inst\.out_notouch_\[179\]
*539 cm_inst\.cc_inst\.out_notouch_\[17\]
*540 cm_inst\.cc_inst\.out_notouch_\[180\]
*541 cm_inst\.cc_inst\.out_notouch_\[181\]
*542 cm_inst\.cc_inst\.out_notouch_\[182\]
*543 cm_inst\.cc_inst\.out_notouch_\[183\]
*544 cm_inst\.cc_inst\.out_notouch_\[184\]
*545 cm_inst\.cc_inst\.out_notouch_\[185\]
*546 cm_inst\.cc_inst\.out_notouch_\[186\]
*547 cm_inst\.cc_inst\.out_notouch_\[187\]
*548 cm_inst\.cc_inst\.out_notouch_\[188\]
*549 cm_inst\.cc_inst\.out_notouch_\[189\]
*550 cm_inst\.cc_inst\.out_notouch_\[18\]
*551 cm_inst\.cc_inst\.out_notouch_\[190\]
*552 cm_inst\.cc_inst\.out_notouch_\[191\]
*553 cm_inst\.cc_inst\.out_notouch_\[192\]
*554 cm_inst\.cc_inst\.out_notouch_\[193\]
*555 cm_inst\.cc_inst\.out_notouch_\[194\]
*556 cm_inst\.cc_inst\.out_notouch_\[195\]
*557 cm_inst\.cc_inst\.out_notouch_\[196\]
*558 cm_inst\.cc_inst\.out_notouch_\[197\]
*559 cm_inst\.cc_inst\.out_notouch_\[198\]
*560 cm_inst\.cc_inst\.out_notouch_\[199\]
*561 cm_inst\.cc_inst\.out_notouch_\[19\]
*562 cm_inst\.cc_inst\.out_notouch_\[1\]
*563 cm_inst\.cc_inst\.out_notouch_\[200\]
*564 cm_inst\.cc_inst\.out_notouch_\[201\]
*565 cm_inst\.cc_inst\.out_notouch_\[202\]
*566 cm_inst\.cc_inst\.out_notouch_\[203\]
*567 cm_inst\.cc_inst\.out_notouch_\[204\]
*568 cm_inst\.cc_inst\.out_notouch_\[205\]
*569 cm_inst\.cc_inst\.out_notouch_\[206\]
*570 cm_inst\.cc_inst\.out_notouch_\[207\]
*571 cm_inst\.cc_inst\.out_notouch_\[208\]
*572 cm_inst\.cc_inst\.out_notouch_\[209\]
*573 cm_inst\.cc_inst\.out_notouch_\[20\]
*574 cm_inst\.cc_inst\.out_notouch_\[210\]
*575 cm_inst\.cc_inst\.out_notouch_\[211\]
*576 cm_inst\.cc_inst\.out_notouch_\[212\]
*577 cm_inst\.cc_inst\.out_notouch_\[213\]
*578 cm_inst\.cc_inst\.out_notouch_\[214\]
*579 cm_inst\.cc_inst\.out_notouch_\[215\]
*580 cm_inst\.cc_inst\.out_notouch_\[216\]
*581 cm_inst\.cc_inst\.out_notouch_\[217\]
*582 cm_inst\.cc_inst\.out_notouch_\[218\]
*583 cm_inst\.cc_inst\.out_notouch_\[219\]
*584 cm_inst\.cc_inst\.out_notouch_\[21\]
*585 cm_inst\.cc_inst\.out_notouch_\[220\]
*586 cm_inst\.cc_inst\.out_notouch_\[221\]
*587 cm_inst\.cc_inst\.out_notouch_\[222\]
*588 cm_inst\.cc_inst\.out_notouch_\[223\]
*589 cm_inst\.cc_inst\.out_notouch_\[224\]
*590 cm_inst\.cc_inst\.out_notouch_\[225\]
*591 cm_inst\.cc_inst\.out_notouch_\[226\]
*592 cm_inst\.cc_inst\.out_notouch_\[227\]
*593 cm_inst\.cc_inst\.out_notouch_\[228\]
*594 cm_inst\.cc_inst\.out_notouch_\[229\]
*595 cm_inst\.cc_inst\.out_notouch_\[22\]
*596 cm_inst\.cc_inst\.out_notouch_\[230\]
*597 cm_inst\.cc_inst\.out_notouch_\[231\]
*598 cm_inst\.cc_inst\.out_notouch_\[232\]
*599 cm_inst\.cc_inst\.out_notouch_\[233\]
*600 cm_inst\.cc_inst\.out_notouch_\[234\]
*601 cm_inst\.cc_inst\.out_notouch_\[235\]
*602 cm_inst\.cc_inst\.out_notouch_\[236\]
*603 cm_inst\.cc_inst\.out_notouch_\[237\]
*604 cm_inst\.cc_inst\.out_notouch_\[238\]
*605 cm_inst\.cc_inst\.out_notouch_\[239\]
*606 cm_inst\.cc_inst\.out_notouch_\[23\]
*607 cm_inst\.cc_inst\.out_notouch_\[240\]
*608 cm_inst\.cc_inst\.out_notouch_\[241\]
*609 cm_inst\.cc_inst\.out_notouch_\[242\]
*610 cm_inst\.cc_inst\.out_notouch_\[243\]
*611 cm_inst\.cc_inst\.out_notouch_\[244\]
*612 cm_inst\.cc_inst\.out_notouch_\[245\]
*613 cm_inst\.cc_inst\.out_notouch_\[246\]
*614 cm_inst\.cc_inst\.out_notouch_\[247\]
*615 cm_inst\.cc_inst\.out_notouch_\[248\]
*616 cm_inst\.cc_inst\.out_notouch_\[249\]
*617 cm_inst\.cc_inst\.out_notouch_\[24\]
*618 cm_inst\.cc_inst\.out_notouch_\[250\]
*619 cm_inst\.cc_inst\.out_notouch_\[251\]
*620 cm_inst\.cc_inst\.out_notouch_\[252\]
*621 cm_inst\.cc_inst\.out_notouch_\[253\]
*622 cm_inst\.cc_inst\.out_notouch_\[254\]
*623 cm_inst\.cc_inst\.out_notouch_\[255\]
*624 cm_inst\.cc_inst\.out_notouch_\[256\]
*625 cm_inst\.cc_inst\.out_notouch_\[257\]
*626 cm_inst\.cc_inst\.out_notouch_\[258\]
*627 cm_inst\.cc_inst\.out_notouch_\[259\]
*628 cm_inst\.cc_inst\.out_notouch_\[25\]
*629 cm_inst\.cc_inst\.out_notouch_\[260\]
*630 cm_inst\.cc_inst\.out_notouch_\[261\]
*631 cm_inst\.cc_inst\.out_notouch_\[262\]
*632 cm_inst\.cc_inst\.out_notouch_\[263\]
*633 cm_inst\.cc_inst\.out_notouch_\[264\]
*634 cm_inst\.cc_inst\.out_notouch_\[265\]
*635 cm_inst\.cc_inst\.out_notouch_\[266\]
*636 cm_inst\.cc_inst\.out_notouch_\[267\]
*637 cm_inst\.cc_inst\.out_notouch_\[268\]
*638 cm_inst\.cc_inst\.out_notouch_\[269\]
*639 cm_inst\.cc_inst\.out_notouch_\[26\]
*640 cm_inst\.cc_inst\.out_notouch_\[270\]
*641 cm_inst\.cc_inst\.out_notouch_\[271\]
*642 cm_inst\.cc_inst\.out_notouch_\[272\]
*643 cm_inst\.cc_inst\.out_notouch_\[273\]
*644 cm_inst\.cc_inst\.out_notouch_\[274\]
*645 cm_inst\.cc_inst\.out_notouch_\[275\]
*646 cm_inst\.cc_inst\.out_notouch_\[276\]
*647 cm_inst\.cc_inst\.out_notouch_\[277\]
*648 cm_inst\.cc_inst\.out_notouch_\[278\]
*649 cm_inst\.cc_inst\.out_notouch_\[279\]
*650 cm_inst\.cc_inst\.out_notouch_\[27\]
*651 cm_inst\.cc_inst\.out_notouch_\[280\]
*652 cm_inst\.cc_inst\.out_notouch_\[281\]
*653 cm_inst\.cc_inst\.out_notouch_\[282\]
*654 cm_inst\.cc_inst\.out_notouch_\[283\]
*655 cm_inst\.cc_inst\.out_notouch_\[284\]
*656 cm_inst\.cc_inst\.out_notouch_\[285\]
*657 cm_inst\.cc_inst\.out_notouch_\[286\]
*658 cm_inst\.cc_inst\.out_notouch_\[287\]
*659 cm_inst\.cc_inst\.out_notouch_\[288\]
*660 cm_inst\.cc_inst\.out_notouch_\[289\]
*661 cm_inst\.cc_inst\.out_notouch_\[28\]
*662 cm_inst\.cc_inst\.out_notouch_\[290\]
*663 cm_inst\.cc_inst\.out_notouch_\[291\]
*664 cm_inst\.cc_inst\.out_notouch_\[292\]
*665 cm_inst\.cc_inst\.out_notouch_\[293\]
*666 cm_inst\.cc_inst\.out_notouch_\[294\]
*667 cm_inst\.cc_inst\.out_notouch_\[295\]
*668 cm_inst\.cc_inst\.out_notouch_\[296\]
*669 cm_inst\.cc_inst\.out_notouch_\[297\]
*670 cm_inst\.cc_inst\.out_notouch_\[298\]
*671 cm_inst\.cc_inst\.out_notouch_\[299\]
*672 cm_inst\.cc_inst\.out_notouch_\[29\]
*673 cm_inst\.cc_inst\.out_notouch_\[2\]
*674 cm_inst\.cc_inst\.out_notouch_\[300\]
*675 cm_inst\.cc_inst\.out_notouch_\[301\]
*676 cm_inst\.cc_inst\.out_notouch_\[302\]
*677 cm_inst\.cc_inst\.out_notouch_\[303\]
*678 cm_inst\.cc_inst\.out_notouch_\[304\]
*679 cm_inst\.cc_inst\.out_notouch_\[305\]
*680 cm_inst\.cc_inst\.out_notouch_\[306\]
*681 cm_inst\.cc_inst\.out_notouch_\[307\]
*682 cm_inst\.cc_inst\.out_notouch_\[308\]
*683 cm_inst\.cc_inst\.out_notouch_\[309\]
*684 cm_inst\.cc_inst\.out_notouch_\[30\]
*685 cm_inst\.cc_inst\.out_notouch_\[310\]
*686 cm_inst\.cc_inst\.out_notouch_\[311\]
*687 cm_inst\.cc_inst\.out_notouch_\[312\]
*688 cm_inst\.cc_inst\.out_notouch_\[313\]
*689 cm_inst\.cc_inst\.out_notouch_\[314\]
*690 cm_inst\.cc_inst\.out_notouch_\[315\]
*691 cm_inst\.cc_inst\.out_notouch_\[316\]
*692 cm_inst\.cc_inst\.out_notouch_\[317\]
*693 cm_inst\.cc_inst\.out_notouch_\[318\]
*694 cm_inst\.cc_inst\.out_notouch_\[319\]
*695 cm_inst\.cc_inst\.out_notouch_\[31\]
*696 cm_inst\.cc_inst\.out_notouch_\[320\]
*697 cm_inst\.cc_inst\.out_notouch_\[321\]
*698 cm_inst\.cc_inst\.out_notouch_\[322\]
*699 cm_inst\.cc_inst\.out_notouch_\[323\]
*700 cm_inst\.cc_inst\.out_notouch_\[324\]
*701 cm_inst\.cc_inst\.out_notouch_\[325\]
*702 cm_inst\.cc_inst\.out_notouch_\[326\]
*703 cm_inst\.cc_inst\.out_notouch_\[327\]
*704 cm_inst\.cc_inst\.out_notouch_\[328\]
*705 cm_inst\.cc_inst\.out_notouch_\[329\]
*706 cm_inst\.cc_inst\.out_notouch_\[32\]
*707 cm_inst\.cc_inst\.out_notouch_\[330\]
*708 cm_inst\.cc_inst\.out_notouch_\[331\]
*709 cm_inst\.cc_inst\.out_notouch_\[332\]
*710 cm_inst\.cc_inst\.out_notouch_\[333\]
*711 cm_inst\.cc_inst\.out_notouch_\[334\]
*712 cm_inst\.cc_inst\.out_notouch_\[335\]
*713 cm_inst\.cc_inst\.out_notouch_\[336\]
*714 cm_inst\.cc_inst\.out_notouch_\[337\]
*715 cm_inst\.cc_inst\.out_notouch_\[338\]
*716 cm_inst\.cc_inst\.out_notouch_\[339\]
*717 cm_inst\.cc_inst\.out_notouch_\[33\]
*718 cm_inst\.cc_inst\.out_notouch_\[340\]
*719 cm_inst\.cc_inst\.out_notouch_\[341\]
*720 cm_inst\.cc_inst\.out_notouch_\[342\]
*721 cm_inst\.cc_inst\.out_notouch_\[343\]
*722 cm_inst\.cc_inst\.out_notouch_\[344\]
*723 cm_inst\.cc_inst\.out_notouch_\[345\]
*724 cm_inst\.cc_inst\.out_notouch_\[346\]
*725 cm_inst\.cc_inst\.out_notouch_\[347\]
*726 cm_inst\.cc_inst\.out_notouch_\[348\]
*727 cm_inst\.cc_inst\.out_notouch_\[349\]
*728 cm_inst\.cc_inst\.out_notouch_\[34\]
*729 cm_inst\.cc_inst\.out_notouch_\[350\]
*730 cm_inst\.cc_inst\.out_notouch_\[351\]
*731 cm_inst\.cc_inst\.out_notouch_\[352\]
*732 cm_inst\.cc_inst\.out_notouch_\[353\]
*733 cm_inst\.cc_inst\.out_notouch_\[354\]
*734 cm_inst\.cc_inst\.out_notouch_\[355\]
*735 cm_inst\.cc_inst\.out_notouch_\[356\]
*736 cm_inst\.cc_inst\.out_notouch_\[357\]
*737 cm_inst\.cc_inst\.out_notouch_\[358\]
*738 cm_inst\.cc_inst\.out_notouch_\[359\]
*739 cm_inst\.cc_inst\.out_notouch_\[35\]
*740 cm_inst\.cc_inst\.out_notouch_\[360\]
*741 cm_inst\.cc_inst\.out_notouch_\[361\]
*742 cm_inst\.cc_inst\.out_notouch_\[362\]
*743 cm_inst\.cc_inst\.out_notouch_\[363\]
*744 cm_inst\.cc_inst\.out_notouch_\[364\]
*745 cm_inst\.cc_inst\.out_notouch_\[365\]
*746 cm_inst\.cc_inst\.out_notouch_\[366\]
*747 cm_inst\.cc_inst\.out_notouch_\[367\]
*748 cm_inst\.cc_inst\.out_notouch_\[368\]
*749 cm_inst\.cc_inst\.out_notouch_\[369\]
*750 cm_inst\.cc_inst\.out_notouch_\[36\]
*751 cm_inst\.cc_inst\.out_notouch_\[370\]
*752 cm_inst\.cc_inst\.out_notouch_\[371\]
*753 cm_inst\.cc_inst\.out_notouch_\[372\]
*754 cm_inst\.cc_inst\.out_notouch_\[373\]
*755 cm_inst\.cc_inst\.out_notouch_\[374\]
*756 cm_inst\.cc_inst\.out_notouch_\[375\]
*757 cm_inst\.cc_inst\.out_notouch_\[376\]
*758 cm_inst\.cc_inst\.out_notouch_\[377\]
*759 cm_inst\.cc_inst\.out_notouch_\[378\]
*760 cm_inst\.cc_inst\.out_notouch_\[379\]
*761 cm_inst\.cc_inst\.out_notouch_\[37\]
*762 cm_inst\.cc_inst\.out_notouch_\[380\]
*763 cm_inst\.cc_inst\.out_notouch_\[381\]
*764 cm_inst\.cc_inst\.out_notouch_\[382\]
*765 cm_inst\.cc_inst\.out_notouch_\[383\]
*766 cm_inst\.cc_inst\.out_notouch_\[384\]
*767 cm_inst\.cc_inst\.out_notouch_\[385\]
*768 cm_inst\.cc_inst\.out_notouch_\[386\]
*769 cm_inst\.cc_inst\.out_notouch_\[387\]
*770 cm_inst\.cc_inst\.out_notouch_\[388\]
*771 cm_inst\.cc_inst\.out_notouch_\[389\]
*772 cm_inst\.cc_inst\.out_notouch_\[38\]
*773 cm_inst\.cc_inst\.out_notouch_\[390\]
*774 cm_inst\.cc_inst\.out_notouch_\[391\]
*775 cm_inst\.cc_inst\.out_notouch_\[392\]
*776 cm_inst\.cc_inst\.out_notouch_\[393\]
*777 cm_inst\.cc_inst\.out_notouch_\[394\]
*778 cm_inst\.cc_inst\.out_notouch_\[395\]
*779 cm_inst\.cc_inst\.out_notouch_\[396\]
*780 cm_inst\.cc_inst\.out_notouch_\[397\]
*781 cm_inst\.cc_inst\.out_notouch_\[398\]
*782 cm_inst\.cc_inst\.out_notouch_\[399\]
*783 cm_inst\.cc_inst\.out_notouch_\[39\]
*784 cm_inst\.cc_inst\.out_notouch_\[3\]
*785 cm_inst\.cc_inst\.out_notouch_\[400\]
*786 cm_inst\.cc_inst\.out_notouch_\[401\]
*787 cm_inst\.cc_inst\.out_notouch_\[402\]
*788 cm_inst\.cc_inst\.out_notouch_\[403\]
*789 cm_inst\.cc_inst\.out_notouch_\[404\]
*790 cm_inst\.cc_inst\.out_notouch_\[405\]
*791 cm_inst\.cc_inst\.out_notouch_\[406\]
*792 cm_inst\.cc_inst\.out_notouch_\[407\]
*793 cm_inst\.cc_inst\.out_notouch_\[408\]
*794 cm_inst\.cc_inst\.out_notouch_\[409\]
*795 cm_inst\.cc_inst\.out_notouch_\[40\]
*796 cm_inst\.cc_inst\.out_notouch_\[410\]
*797 cm_inst\.cc_inst\.out_notouch_\[411\]
*798 cm_inst\.cc_inst\.out_notouch_\[412\]
*799 cm_inst\.cc_inst\.out_notouch_\[413\]
*800 cm_inst\.cc_inst\.out_notouch_\[414\]
*801 cm_inst\.cc_inst\.out_notouch_\[415\]
*802 cm_inst\.cc_inst\.out_notouch_\[416\]
*803 cm_inst\.cc_inst\.out_notouch_\[417\]
*804 cm_inst\.cc_inst\.out_notouch_\[418\]
*805 cm_inst\.cc_inst\.out_notouch_\[419\]
*806 cm_inst\.cc_inst\.out_notouch_\[41\]
*807 cm_inst\.cc_inst\.out_notouch_\[420\]
*808 cm_inst\.cc_inst\.out_notouch_\[421\]
*809 cm_inst\.cc_inst\.out_notouch_\[422\]
*810 cm_inst\.cc_inst\.out_notouch_\[423\]
*811 cm_inst\.cc_inst\.out_notouch_\[424\]
*812 cm_inst\.cc_inst\.out_notouch_\[425\]
*813 cm_inst\.cc_inst\.out_notouch_\[426\]
*814 cm_inst\.cc_inst\.out_notouch_\[42\]
*815 cm_inst\.cc_inst\.out_notouch_\[43\]
*816 cm_inst\.cc_inst\.out_notouch_\[44\]
*817 cm_inst\.cc_inst\.out_notouch_\[45\]
*818 cm_inst\.cc_inst\.out_notouch_\[46\]
*819 cm_inst\.cc_inst\.out_notouch_\[47\]
*820 cm_inst\.cc_inst\.out_notouch_\[48\]
*821 cm_inst\.cc_inst\.out_notouch_\[49\]
*822 cm_inst\.cc_inst\.out_notouch_\[4\]
*823 cm_inst\.cc_inst\.out_notouch_\[50\]
*824 cm_inst\.cc_inst\.out_notouch_\[51\]
*825 cm_inst\.cc_inst\.out_notouch_\[52\]
*826 cm_inst\.cc_inst\.out_notouch_\[53\]
*827 cm_inst\.cc_inst\.out_notouch_\[54\]
*828 cm_inst\.cc_inst\.out_notouch_\[55\]
*829 cm_inst\.cc_inst\.out_notouch_\[56\]
*830 cm_inst\.cc_inst\.out_notouch_\[57\]
*831 cm_inst\.cc_inst\.out_notouch_\[58\]
*832 cm_inst\.cc_inst\.out_notouch_\[59\]
*833 cm_inst\.cc_inst\.out_notouch_\[5\]
*834 cm_inst\.cc_inst\.out_notouch_\[60\]
*835 cm_inst\.cc_inst\.out_notouch_\[61\]
*836 cm_inst\.cc_inst\.out_notouch_\[62\]
*837 cm_inst\.cc_inst\.out_notouch_\[63\]
*838 cm_inst\.cc_inst\.out_notouch_\[64\]
*839 cm_inst\.cc_inst\.out_notouch_\[65\]
*840 cm_inst\.cc_inst\.out_notouch_\[66\]
*841 cm_inst\.cc_inst\.out_notouch_\[67\]
*842 cm_inst\.cc_inst\.out_notouch_\[68\]
*843 cm_inst\.cc_inst\.out_notouch_\[69\]
*844 cm_inst\.cc_inst\.out_notouch_\[6\]
*845 cm_inst\.cc_inst\.out_notouch_\[70\]
*846 cm_inst\.cc_inst\.out_notouch_\[71\]
*847 cm_inst\.cc_inst\.out_notouch_\[72\]
*848 cm_inst\.cc_inst\.out_notouch_\[73\]
*849 cm_inst\.cc_inst\.out_notouch_\[74\]
*850 cm_inst\.cc_inst\.out_notouch_\[75\]
*851 cm_inst\.cc_inst\.out_notouch_\[76\]
*852 cm_inst\.cc_inst\.out_notouch_\[77\]
*853 cm_inst\.cc_inst\.out_notouch_\[78\]
*854 cm_inst\.cc_inst\.out_notouch_\[79\]
*855 cm_inst\.cc_inst\.out_notouch_\[7\]
*856 cm_inst\.cc_inst\.out_notouch_\[80\]
*857 cm_inst\.cc_inst\.out_notouch_\[81\]
*858 cm_inst\.cc_inst\.out_notouch_\[82\]
*859 cm_inst\.cc_inst\.out_notouch_\[83\]
*860 cm_inst\.cc_inst\.out_notouch_\[84\]
*861 cm_inst\.cc_inst\.out_notouch_\[85\]
*862 cm_inst\.cc_inst\.out_notouch_\[86\]
*863 cm_inst\.cc_inst\.out_notouch_\[87\]
*864 cm_inst\.cc_inst\.out_notouch_\[88\]
*865 cm_inst\.cc_inst\.out_notouch_\[89\]
*866 cm_inst\.cc_inst\.out_notouch_\[8\]
*867 cm_inst\.cc_inst\.out_notouch_\[90\]
*868 cm_inst\.cc_inst\.out_notouch_\[91\]
*869 cm_inst\.cc_inst\.out_notouch_\[92\]
*870 cm_inst\.cc_inst\.out_notouch_\[93\]
*871 cm_inst\.cc_inst\.out_notouch_\[94\]
*872 cm_inst\.cc_inst\.out_notouch_\[95\]
*873 cm_inst\.cc_inst\.out_notouch_\[96\]
*874 cm_inst\.cc_inst\.out_notouch_\[97\]
*875 cm_inst\.cc_inst\.out_notouch_\[98\]
*876 cm_inst\.cc_inst\.out_notouch_\[99\]
*877 cm_inst\.cc_inst\.out_notouch_\[9\]
*878 cm_inst\.page\[0\]
*879 cm_inst\.page\[1\]
*880 cm_inst\.page\[2\]
*881 cm_inst\.page\[3\]
*882 cm_inst\.page\[4\]
*883 cm_inst\.page\[5\]
*884 net1
*885 net10
*886 net100
*887 net101
*888 net102
*889 net103
*890 net104
*891 net105
*892 net106
*893 net107
*894 net108
*895 net109
*896 net11
*897 net110
*898 net111
*899 net112
*900 net113
*901 net114
*902 net115
*903 net116
*904 net117
*905 net118
*906 net119
*907 net12
*908 net120
*909 net121
*910 net122
*911 net123
*912 net124
*913 net125
*914 net126
*915 net127
*916 net128
*917 net129
*918 net13
*919 net130
*920 net131
*921 net132
*922 net133
*923 net134
*924 net135
*925 net136
*926 net137
*927 net138
*928 net139
*929 net14
*930 net140
*931 net141
*932 net142
*933 net143
*934 net144
*935 net145
*936 net146
*937 net147
*938 net148
*939 net149
*940 net15
*941 net150
*942 net151
*943 net152
*944 net153
*945 net154
*946 net155
*947 net156
*948 net157
*949 net158
*950 net159
*951 net16
*952 net160
*953 net161
*954 net162
*955 net163
*956 net164
*957 net165
*958 net166
*959 net167
*960 net168
*961 net169
*962 net17
*963 net170
*964 net171
*965 net172
*966 net173
*967 net174
*968 net175
*969 net176
*970 net177
*971 net178
*972 net18
*973 net19
*974 net2
*975 net20
*976 net21
*977 net22
*978 net23
*979 net24
*980 net25
*981 net26
*982 net27
*983 net28
*984 net29
*985 net3
*986 net30
*987 net31
*988 net32
*989 net33
*990 net34
*991 net35
*992 net36
*993 net37
*994 net38
*995 net39
*996 net4
*997 net40
*998 net41
*999 net42
*1000 net43
*1001 net44
*1002 net45
*1003 net46
*1004 net47
*1005 net48
*1006 net49
*1007 net5
*1008 net50
*1009 net51
*1010 net52
*1011 net53
*1012 net54
*1013 net55
*1014 net56
*1015 net57
*1016 net58
*1017 net59
*1018 net6
*1019 net60
*1020 net61
*1021 net62
*1022 net63
*1023 net64
*1024 net65
*1025 net66
*1026 net67
*1027 net68
*1028 net69
*1029 net7
*1030 net70
*1031 net71
*1032 net72
*1033 net73
*1034 net74
*1035 net75
*1036 net76
*1037 net77
*1038 net78
*1039 net79
*1040 net8
*1041 net80
*1042 net81
*1043 net82
*1044 net83
*1045 net84
*1046 net85
*1047 net86
*1048 net87
*1049 net88
*1050 net89
*1051 net9
*1052 net90
*1053 net91
*1054 net92
*1055 net93
*1056 net94
*1057 net95
*1058 net96
*1059 net97
*1060 net98
*1061 net99
*1062 ro_inst\.counter\[0\]
*1063 ro_inst\.counter\[10\]
*1064 ro_inst\.counter\[11\]
*1065 ro_inst\.counter\[12\]
*1066 ro_inst\.counter\[13\]
*1067 ro_inst\.counter\[14\]
*1068 ro_inst\.counter\[15\]
*1069 ro_inst\.counter\[16\]
*1070 ro_inst\.counter\[17\]
*1071 ro_inst\.counter\[18\]
*1072 ro_inst\.counter\[19\]
*1073 ro_inst\.counter\[1\]
*1074 ro_inst\.counter\[20\]
*1075 ro_inst\.counter\[21\]
*1076 ro_inst\.counter\[22\]
*1077 ro_inst\.counter\[23\]
*1078 ro_inst\.counter\[24\]
*1079 ro_inst\.counter\[25\]
*1080 ro_inst\.counter\[26\]
*1081 ro_inst\.counter\[27\]
*1082 ro_inst\.counter\[28\]
*1083 ro_inst\.counter\[29\]
*1084 ro_inst\.counter\[2\]
*1085 ro_inst\.counter\[30\]
*1086 ro_inst\.counter\[31\]
*1087 ro_inst\.counter\[32\]
*1088 ro_inst\.counter\[33\]
*1089 ro_inst\.counter\[34\]
*1090 ro_inst\.counter\[3\]
*1091 ro_inst\.counter\[4\]
*1092 ro_inst\.counter\[5\]
*1093 ro_inst\.counter\[6\]
*1094 ro_inst\.counter\[7\]
*1095 ro_inst\.counter\[8\]
*1096 ro_inst\.counter\[9\]
*1097 ro_inst\.counter_n\[0\]
*1098 ro_inst\.counter_n\[10\]
*1099 ro_inst\.counter_n\[11\]
*1100 ro_inst\.counter_n\[12\]
*1101 ro_inst\.counter_n\[13\]
*1102 ro_inst\.counter_n\[14\]
*1103 ro_inst\.counter_n\[15\]
*1104 ro_inst\.counter_n\[16\]
*1105 ro_inst\.counter_n\[17\]
*1106 ro_inst\.counter_n\[18\]
*1107 ro_inst\.counter_n\[19\]
*1108 ro_inst\.counter_n\[1\]
*1109 ro_inst\.counter_n\[20\]
*1110 ro_inst\.counter_n\[21\]
*1111 ro_inst\.counter_n\[22\]
*1112 ro_inst\.counter_n\[23\]
*1113 ro_inst\.counter_n\[24\]
*1114 ro_inst\.counter_n\[25\]
*1115 ro_inst\.counter_n\[26\]
*1116 ro_inst\.counter_n\[27\]
*1117 ro_inst\.counter_n\[28\]
*1118 ro_inst\.counter_n\[29\]
*1119 ro_inst\.counter_n\[2\]
*1120 ro_inst\.counter_n\[30\]
*1121 ro_inst\.counter_n\[31\]
*1122 ro_inst\.counter_n\[32\]
*1123 ro_inst\.counter_n\[33\]
*1124 ro_inst\.counter_n\[34\]
*1125 ro_inst\.counter_n\[3\]
*1126 ro_inst\.counter_n\[4\]
*1127 ro_inst\.counter_n\[5\]
*1128 ro_inst\.counter_n\[6\]
*1129 ro_inst\.counter_n\[7\]
*1130 ro_inst\.counter_n\[8\]
*1131 ro_inst\.counter_n\[9\]
*1132 ro_inst\.enable
*1133 ro_inst\.ring\[0\]
*1134 ro_inst\.ring\[1\]
*1135 ro_inst\.ring\[2\]
*1136 ro_inst\.running
*1137 ro_inst\.saved_signal
*1138 ro_inst\.signal
*1139 ro_sel\[0\]
*1140 ro_sel\[1\]
*1141 ro_sel\[2\]
*1142 ANTENNA_1
*1143 ANTENNA_10
*1144 ANTENNA_11
*1145 ANTENNA_12
*1146 ANTENNA_13
*1147 ANTENNA_14
*1148 ANTENNA_15
*1149 ANTENNA_16
*1150 ANTENNA_17
*1151 ANTENNA_18
*1152 ANTENNA_19
*1153 ANTENNA_2
*1154 ANTENNA_20
*1155 ANTENNA_21
*1156 ANTENNA_22
*1157 ANTENNA_23
*1158 ANTENNA_24
*1159 ANTENNA_25
*1160 ANTENNA_26
*1161 ANTENNA_27
*1162 ANTENNA_28
*1163 ANTENNA_3
*1164 ANTENNA_4
*1165 ANTENNA_5
*1166 ANTENNA_6
*1167 ANTENNA_7
*1168 ANTENNA_8
*1169 ANTENNA_9
*1170 FILLER_0_10
*1171 FILLER_0_110
*1172 FILLER_0_113
*1173 FILLER_0_124
*1174 FILLER_0_138
*1175 FILLER_0_141
*1176 FILLER_0_153
*1177 FILLER_0_163
*1178 FILLER_0_167
*1179 FILLER_0_169
*1180 FILLER_0_177
*1181 FILLER_0_18
*1182 FILLER_0_194
*1183 FILLER_0_197
*1184 FILLER_0_205
*1185 FILLER_0_215
*1186 FILLER_0_222
*1187 FILLER_0_225
*1188 FILLER_0_231
*1189 FILLER_0_242
*1190 FILLER_0_250
*1191 FILLER_0_253
*1192 FILLER_0_26
*1193 FILLER_0_261
*1194 FILLER_0_271
*1195 FILLER_0_278
*1196 FILLER_0_287
*1197 FILLER_0_29
*1198 FILLER_0_291
*1199 FILLER_0_297
*1200 FILLER_0_3
*1201 FILLER_0_54
*1202 FILLER_0_57
*1203 FILLER_0_82
*1204 FILLER_0_85
*1205 FILLER_0_93
*1206 FILLER_10_113
*1207 FILLER_10_133
*1208 FILLER_10_139
*1209 FILLER_10_141
*1210 FILLER_10_151
*1211 FILLER_10_16
*1212 FILLER_10_164
*1213 FILLER_10_172
*1214 FILLER_10_183
*1215 FILLER_10_194
*1216 FILLER_10_197
*1217 FILLER_10_203
*1218 FILLER_10_214
*1219 FILLER_10_230
*1220 FILLER_10_244
*1221 FILLER_10_253
*1222 FILLER_10_257
*1223 FILLER_10_26
*1224 FILLER_10_265
*1225 FILLER_10_29
*1226 FILLER_10_290
*1227 FILLER_10_297
*1228 FILLER_10_3
*1229 FILLER_10_35
*1230 FILLER_10_59
*1231 FILLER_10_68
*1232 FILLER_10_82
*1233 FILLER_10_85
*1234 FILLER_10_92
*1235 FILLER_11_102
*1236 FILLER_11_110
*1237 FILLER_11_113
*1238 FILLER_11_13
*1239 FILLER_11_136