*SPEF "ieee 1481-1999"
*DESIGN "jar_sram_top"
*DATE "11:11:11 Fri 11 11, 1111"
*VENDOR "OpenRCX"
*PROGRAM "Parallel Extraction"
*VERSION "1.0"
*DESIGN_FLOW "NAME_SCOPE LOCAL" "PIN_CAP NONE"
*DIVIDER /
*DELIMITER :
*BUS_DELIMITER []
*T_UNIT 1 NS
*C_UNIT 1 PF
*R_UNIT 1 OHM
*L_UNIT 1 HENRY

*NAME_MAP
*1 io_in[0]
*2 io_in[1]
*3 io_in[2]
*4 io_in[3]
*5 io_in[4]
*6 io_in[5]
*7 io_in[6]
*8 io_in[7]
*9 io_out[0]
*10 io_out[1]
*11 io_out[2]
*12 io_out[3]
*13 io_out[4]
*14 io_out[5]
*15 io_out[6]
*16 io_out[7]
*19 _0000_
*20 _0001_
*21 _0002_
*22 _0003_
*23 _0004_
*24 _0005_
*25 _0006_
*26 _0007_
*27 _0008_
*28 _0009_
*29 _0010_
*30 _0011_
*31 _0012_
*32 _0013_
*33 _0014_
*34 _0015_
*35 _0016_
*36 _0017_
*37 _0018_
*38 _0019_
*39 _0020_
*40 _0021_
*41 _0022_
*42 _0023_
*43 _0024_
*44 _0025_
*45 _0026_
*46 _0027_
*47 _0028_
*48 _0029_
*49 _0030_
*50 _0031_
*51 _0032_
*52 _0033_
*53 _0034_
*54 _0035_
*55 _0036_
*56 _0037_
*57 _0038_
*58 _0039_
*59 _0040_
*60 _0041_
*61 _0042_
*62 _0043_
*63 _0044_
*64 _0045_
*65 _0046_
*66 _0047_
*67 _0048_
*68 _0049_
*69 _0050_
*70 _0051_
*71 _0052_
*72 _0053_
*73 _0054_
*74 _0055_
*75 _0056_
*76 _0057_
*77 _0058_
*78 _0059_
*79 _0060_
*80 _0061_
*81 _0062_
*82 _0063_
*83 _0064_
*84 _0065_
*85 _0066_
*86 _0067_
*87 _0068_
*88 _0069_
*89 _0070_
*90 _0071_
*91 _0072_
*92 _0073_
*93 _0074_
*94 _0075_
*95 _0076_
*96 _0077_
*97 _0078_
*98 _0079_
*99 _0080_
*100 _0081_
*101 _0082_
*102 _0083_
*103 _0084_
*104 _0085_
*105 _0086_
*106 _0087_
*107 _0088_
*108 _0089_
*109 _0090_
*110 _0091_
*111 _0092_
*112 _0093_
*113 _0094_
*114 _0095_
*115 _0096_
*116 _0097_
*117 _0098_
*118 _0099_
*119 _0100_
*120 _0101_
*121 _0102_
*122 _0103_
*123 _0104_
*124 _0105_
*125 _0106_
*126 _0107_
*127 _0108_
*128 _0109_
*129 _0110_
*130 _0111_
*131 _0112_
*132 _0113_
*133 _0114_
*134 _0115_
*135 _0116_
*136 _0117_
*137 _0118_
*138 _0119_
*139 _0120_
*140 _0121_
*141 _0122_
*142 _0123_
*143 _0124_
*144 _0125_
*145 _0126_
*146 _0127_
*147 _0128_
*148 _0129_
*149 _0130_
*150 _0131_
*151 _0132_
*152 _0133_
*153 _0134_
*154 _0135_
*155 _0136_
*156 _0137_
*157 _0138_
*158 _0139_
*159 _0140_
*160 _0141_
*161 _0142_
*162 _0143_
*163 _0144_
*164 _0145_
*165 _0146_
*166 _0147_
*167 _0148_
*168 _0149_
*169 _0150_
*170 _0151_
*171 _0152_
*172 _0153_
*173 _0154_
*174 _0155_
*175 _0156_
*176 _0157_
*177 _0158_
*178 _0159_
*179 _0160_
*180 _0161_
*181 _0162_
*182 _0163_
*183 _0164_
*184 _0165_
*185 _0166_
*186 _0167_
*187 _0168_
*188 _0169_
*189 _0170_
*190 _0171_
*191 _0172_
*192 _0173_
*193 _0174_
*194 _0175_
*195 _0176_
*196 _0177_
*197 _0178_
*198 _0179_
*199 _0180_
*200 _0181_
*201 _0182_
*202 _0183_
*203 _0184_
*204 _0185_
*205 _0186_
*206 _0187_
*207 _0188_
*208 _0189_
*209 _0190_
*210 _0191_
*211 _0192_
*212 _0193_
*213 _0194_
*214 _0195_
*215 _0196_
*216 _0197_
*217 _0198_
*218 _0199_
*219 _0200_
*220 _0201_
*221 _0202_
*222 _0203_
*223 _0204_
*224 _0205_
*225 _0206_
*226 _0207_
*227 _0208_
*228 _0209_
*229 _0210_
*230 _0211_
*231 _0212_
*232 _0213_
*233 _0214_
*234 _0215_
*235 _0216_
*236 _0217_
*237 _0218_
*238 _0219_
*239 _0220_
*240 _0221_
*241 _0222_
*242 _0223_
*243 _0224_
*244 _0225_
*245 _0226_
*246 _0227_
*247 _0228_
*248 _0229_
*249 _0230_
*250 _0231_
*251 _0232_
*252 _0233_
*253 _0234_
*254 _0235_
*255 _0236_
*256 _0237_
*257 _0238_
*258 _0239_
*259 _0240_
*260 _0241_
*261 _0242_
*262 _0243_
*263 _0244_
*264 _0245_
*265 _0246_
*266 _0247_
*267 _0248_
*268 _0249_
*269 _0250_
*270 _0251_
*271 _0252_
*272 _0253_
*273 _0254_
*274 _0255_
*275 _0256_
*276 _0257_
*277 _0258_
*278 _0259_
*279 _0260_
*280 _0261_
*281 _0262_
*282 _0263_
*283 _0264_
*284 _0265_
*285 _0266_
*286 _0267_
*287 _0268_
*288 _0269_
*289 _0270_
*290 _0271_
*291 _0272_
*292 _0273_
*293 _0274_
*294 _0275_
*295 _0276_
*296 _0277_
*297 _0278_
*298 _0279_
*299 _0280_
*300 _0281_
*301 _0282_
*302 _0283_
*303 _0284_
*304 _0285_
*305 _0286_
*306 _0287_
*307 _0288_
*308 _0289_
*309 _0290_
*310 _0291_
*311 _0292_
*312 _0293_
*313 _0294_
*314 _0295_
*315 _0296_
*316 _0297_
*317 _0298_
*318 _0299_
*319 _0300_
*320 _0301_
*321 _0302_
*322 _0303_
*323 _0304_
*324 _0305_
*325 _0306_
*326 _0307_
*327 _0308_
*328 _0309_
*329 _0310_
*330 _0311_
*331 _0312_
*332 _0313_
*333 _0314_
*334 _0315_
*335 _0316_
*336 _0317_
*337 _0318_
*338 _0319_
*339 _0320_
*340 _0321_
*341 _0322_
*342 _0323_
*343 _0324_
*344 _0325_
*345 _0326_
*346 _0327_
*347 _0328_
*348 _0329_
*349 _0330_
*350 _0331_
*351 _0332_
*352 _0333_
*353 _0334_
*354 _0335_
*355 _0336_
*356 _0337_
*357 _0338_
*358 _0339_
*359 _0340_
*360 _0341_
*361 _0342_
*362 _0343_
*363 _0344_
*364 _0345_
*365 _0346_
*366 _0347_
*367 _0348_
*368 _0349_
*369 _0350_
*370 _0351_
*371 _0352_
*372 _0353_
*373 _0354_
*374 _0355_
*375 _0356_
*376 _0357_
*377 _0358_
*378 _0359_
*379 _0360_
*380 _0361_
*381 _0362_
*382 _0363_
*383 _0364_
*384 _0365_
*385 _0366_
*386 _0367_
*387 _0368_
*388 _0369_
*389 _0370_
*390 _0371_
*391 _0372_
*392 _0373_
*393 _0374_
*394 _0375_
*395 _0376_
*396 _0377_
*397 _0378_
*398 _0379_
*399 _0380_
*400 _0381_
*401 _0382_
*402 _0383_
*403 _0384_
*404 _0385_
*405 _0386_
*406 _0387_
*407 _0388_
*408 _0389_
*409 _0390_
*410 _0391_
*411 _0392_
*412 _0393_
*413 _0394_
*414 _0395_
*415 _0396_
*416 _0397_
*417 _0398_
*418 _0399_
*419 _0400_
*420 _0401_
*421 _0402_
*422 _0403_
*423 _0404_
*424 _0405_
*425 _0406_
*426 _0407_
*427 _0408_
*428 _0409_
*429 _0410_
*430 _0411_
*431 _0412_
*432 _0413_
*433 _0414_
*434 _0415_
*435 _0416_
*436 _0417_
*437 _0418_
*438 _0419_
*439 _0420_
*440 _0421_
*441 _0422_
*442 _0423_
*443 _0424_
*444 _0425_
*445 _0426_
*446 _0427_
*447 _0428_
*448 _0429_
*449 _0430_
*450 _0431_
*451 _0432_
*452 _0433_
*453 _0434_
*454 _0435_
*455 _0436_
*456 _0437_
*457 _0438_
*458 _0439_
*459 _0440_
*460 _0441_
*461 _0442_
*462 _0443_
*463 _0444_
*464 _0445_
*465 _0446_
*466 _0447_
*467 _0448_
*468 _0449_
*469 _0450_
*470 _0451_
*471 _0452_
*472 _0453_
*473 _0454_
*474 _0455_
*475 _0456_
*476 _0457_
*477 _0458_
*478 _0459_
*479 _0460_
*480 _0461_
*481 _0462_
*482 _0463_
*483 _0464_
*484 _0465_
*485 _0466_
*486 _0467_
*487 _0468_
*488 _0469_
*489 _0470_
*490 _0471_
*491 _0472_
*492 _0473_
*493 _0474_
*494 _0475_
*495 _0476_
*496 _0477_
*497 _0478_
*498 _0479_
*499 _0480_
*500 _0481_
*501 _0482_
*502 _0483_
*503 _0484_
*504 _0485_
*505 _0486_
*506 _0487_
*507 _0488_
*508 _0489_
*509 _0490_
*510 _0491_
*511 _0492_
*512 _0493_
*513 _0494_
*514 _0495_
*515 _0496_
*516 _0497_
*517 _0498_
*518 _0499_
*519 _0500_
*520 _0501_
*521 _0502_
*522 _0503_
*523 _0504_
*524 _0505_
*525 _0506_
*526 _0507_
*527 _0508_
*528 _0509_
*529 _0510_
*530 _0511_
*531 _0512_
*532 _0513_
*533 _0514_
*534 _0515_
*535 _0516_
*536 _0517_
*537 _0518_
*538 _0519_
*539 _0520_
*540 _0521_
*541 _0522_
*542 _0523_
*543 _0524_
*544 _0525_
*545 _0526_
*546 _0527_
*547 _0528_
*548 _0529_
*549 _0530_
*550 _0531_
*551 _0532_
*552 _0533_
*553 _0534_
*554 _0535_
*555 _0536_
*556 _0537_
*557 _0538_
*558 _0539_
*559 _0540_
*560 _0541_
*561 _0542_
*562 _0543_
*563 _0544_
*564 _0545_
*565 _0546_
*566 _0547_
*567 _0548_
*568 _0549_
*569 _0550_
*570 _0551_
*571 _0552_
*572 _0553_
*573 _0554_
*574 _0555_
*575 _0556_
*576 _0557_
*577 _0558_
*578 _0559_
*579 _0560_
*580 _0561_
*581 _0562_
*582 _0563_
*583 _0564_
*584 _0565_
*585 _0566_
*586 _0567_
*587 _0568_
*588 clknet_0_io_in[0]
*589 clknet_4_0_0_io_in[0]
*590 clknet_4_10_0_io_in[0]
*591 clknet_4_11_0_io_in[0]
*592 clknet_4_12_0_io_in[0]
*593 clknet_4_13_0_io_in[0]
*594 clknet_4_14_0_io_in[0]
*595 clknet_4_15_0_io_in[0]
*596 clknet_4_1_0_io_in[0]
*597 clknet_4_2_0_io_in[0]
*598 clknet_4_3_0_io_in[0]
*599 clknet_4_4_0_io_in[0]
*600 clknet_4_5_0_io_in[0]
*601 clknet_4_6_0_io_in[0]
*602 clknet_4_7_0_io_in[0]
*603 clknet_4_8_0_io_in[0]
*604 clknet_4_9_0_io_in[0]
*605 data_tmp\[0\]
*606 data_tmp\[1\]
*607 data_tmp\[2\]
*608 data_tmp\[3\]
*609 data_tmp\[4\]
*610 data_tmp\[5\]
*611 data_tmp\[6\]
*612 data_tmp\[7\]
*613 mem\[0\]\[0\]
*614 mem\[0\]\[1\]
*615 mem\[0\]\[2\]
*616 mem\[0\]\[3\]
*617 mem\[0\]\[4\]
*618 mem\[0\]\[5\]
*619 mem\[0\]\[6\]
*620 mem\[0\]\[7\]
*621 mem\[10\]\[0\]
*622 mem\[10\]\[1\]
*623 mem\[10\]\[2\]
*624 mem\[10\]\[3\]
*625 mem\[10\]\[4\]
*626 mem\[10\]\[5\]
*627 mem\[10\]\[6\]
*628 mem\[10\]\[7\]
*629 mem\[11\]\[0\]
*630 mem\[11\]\[1\]
*631 mem\[11\]\[2\]
*632 mem\[11\]\[3\]
*633 mem\[11\]\[4\]
*634 mem\[11\]\[5\]
*635 mem\[11\]\[6\]
*636 mem\[11\]\[7\]
*637 mem\[12\]\[0\]
*638 mem\[12\]\[1\]
*639 mem\[12\]\[2\]
*640 mem\[12\]\[3\]
*641 mem\[12\]\[4\]
*642 mem\[12\]\[5\]
*643 mem\[12\]\[6\]
*644 mem\[12\]\[7\]
*645 mem\[13\]\[0\]
*646 mem\[13\]\[1\]
*647 mem\[13\]\[2\]
*648 mem\[13\]\[3\]
*649 mem\[13\]\[4\]
*650 mem\[13\]\[5\]
*651 mem\[13\]\[6\]
*652 mem\[13\]\[7\]
*653 mem\[14\]\[0\]
*654 mem\[14\]\[1\]
*655 mem\[14\]\[2\]
*656 mem\[14\]\[3\]
*657 mem\[14\]\[4\]
*658 mem\[14\]\[5\]
*659 mem\[14\]\[6\]
*660 mem\[14\]\[7\]
*661 mem\[15\]\[0\]
*662 mem\[15\]\[1\]
*663 mem\[15\]\[2\]
*664 mem\[15\]\[3\]
*665 mem\[15\]\[4\]
*666 mem\[15\]\[5\]
*667 mem\[15\]\[6\]
*668 mem\[15\]\[7\]
*669 mem\[1\]\[0\]
*670 mem\[1\]\[1\]
*671 mem\[1\]\[2\]
*672 mem\[1\]\[3\]
*673 mem\[1\]\[4\]
*674 mem\[1\]\[5\]
*675 mem\[1\]\[6\]
*676 mem\[1\]\[7\]
*677 mem\[2\]\[0\]
*678 mem\[2\]\[1\]
*679 mem\[2\]\[2\]
*680 mem\[2\]\[3\]
*681 mem\[2\]\[4\]
*682 mem\[2\]\[5\]
*683 mem\[2\]\[6\]
*684 mem\[2\]\[7\]
*685 mem\[3\]\[0\]
*686 mem\[3\]\[1\]
*687 mem\[3\]\[2\]
*688 mem\[3\]\[3\]
*689 mem\[3\]\[4\]
*690 mem\[3\]\[5\]
*691 mem\[3\]\[6\]
*692 mem\[3\]\[7\]
*693 mem\[4\]\[0\]
*694 mem\[4\]\[1\]
*695 mem\[4\]\[2\]
*696 mem\[4\]\[3\]
*697 mem\[4\]\[4\]
*698 mem\[4\]\[5\]
*699 mem\[4\]\[6\]
*700 mem\[4\]\[7\]
*701 mem\[5\]\[0\]
*702 mem\[5\]\[1\]
*703 mem\[5\]\[2\]
*704 mem\[5\]\[3\]
*705 mem\[5\]\[4\]
*706 mem\[5\]\[5\]
*707 mem\[5\]\[6\]
*708 mem\[5\]\[7\]
*709 mem\[6\]\[0\]
*710 mem\[6\]\[1\]
*711 mem\[6\]\[2\]
*712 mem\[6\]\[3\]
*713 mem\[6\]\[4\]
*714 mem\[6\]\[5\]
*715 mem\[6\]\[6\]
*716 mem\[6\]\[7\]
*717 mem\[7\]\[0\]
*718 mem\[7\]\[1\]
*719 mem\[7\]\[2\]
*720 mem\[7\]\[3\]
*721 mem\[7\]\[4\]
*722 mem\[7\]\[5\]
*723 mem\[7\]\[6\]
*724 mem\[7\]\[7\]
*725 mem\[8\]\[0\]
*726 mem\[8\]\[1\]
*727 mem\[8\]\[2\]
*728 mem\[8\]\[3\]
*729 mem\[8\]\[4\]
*730 mem\[8\]\[5\]
*731 mem\[8\]\[6\]
*732 mem\[8\]\[7\]
*733 mem\[9\]\[0\]
*734 mem\[9\]\[1\]
*735 mem\[9\]\[2\]
*736 mem\[9\]\[3\]
*737 mem\[9\]\[4\]
*738 mem\[9\]\[5\]
*739 mem\[9\]\[6\]
*740 mem\[9\]\[7\]
*741 net1
*742 net2
*743 net3
*744 net4
*745 net5
*746 net6
*747 net7
*748 stream_index\[0\]
*749 stream_index\[1\]
*750 stream_index\[2\]
*751 stream_index\[3\]
*752 FILLER_0_103
*753 FILLER_0_110
*754 FILLER_0_113
*755 FILLER_0_125
*756 FILLER_0_137
*757 FILLER_0_141
*758 FILLER_0_146
*759 FILLER_0_15
*760 FILLER_0_153
*761 FILLER_0_164
*762 FILLER_0_169
*763 FILLER_0_181
*764 FILLER_0_193
*765 FILLER_0_197
*766 FILLER_0_209
*767 FILLER_0_221
*768 FILLER_0_225
*769 FILLER_0_237
*770 FILLER_0_249
*771 FILLER_0_253
*772 FILLER_0_265
*773 FILLER_0_27
*774 FILLER_0_277
*775 FILLER_0_281
*776 FILLER_0_29
*777 FILLER_0_293
*778 FILLER_0_3
*779 FILLER_0_41
*780 FILLER_0_53
*781 FILLER_0_57
*782 FILLER_0_69
*783 FILLER_0_81
*784 FILLER_0_85
*785 FILLER_10_106
*786 FILLER_10_11
*787 FILLER_10_114
*788 FILLER_10_124
*789 FILLER_10_132
*790 FILLER_10_138
*791 FILLER_10_141
*792 FILLER_10_145
*793 FILLER_10_152
*794 FILLER_10_159
*795 FILLER_10_166
*796 FILLER_10_172
*797 FILLER_10_179
*798 FILLER_10_18
*799 FILLER_10_187
*800 FILLER_10_191
*801 FILLER_10_195
*802 FILLER_10_197
*803 FILLER_10_209
*804 FILLER_10_22
*805 FILLER_10_221
*806 FILLER_10_233
*807 FILLER_10_245
*808 FILLER_10_251
*809 FILLER_10_253
*810 FILLER_10_26
*811 FILLER_10_265
*812 FILLER_10_277
*813 FILLER_10_289
*814 FILLER_10_29
*815 FILLER_10_297
*816 FILLER_10_3
*817 FILLER_10_33
*818 FILLER_10_43
*819 FILLER_10_63
*820 FILLER_10_7
*821 FILLER_10_71
*822 FILLER_10_82
*823 FILLER_10_85
*824 FILLER_10_91
*825 FILLER_10_98
*826 FILLER_11_110
*827 FILLER_11_113
*828 FILLER_11_122
*829 FILLER_11_135
*830 FILLER_11_146
*831 FILLER_11_156
*832 FILLER_11_165
*833 FILLER_11_169
*834 FILLER_11_17
*835 FILLER_11_174
*836 FILLER_11_194
*837 FILLER_11_206
*838 FILLER_11_218
*839 FILLER_11_225
*840 FILLER_11_23
*841 FILLER_11_237
*842 FILLER_11_249
*843 FILLER_11_261
*844 FILLER_11_273
*845 FILLER_11_279
*846 FILLER_11_281
*847 FILLER_11_293
*848 FILLER_11_3
*849 FILLER_11_32
*850 FILLER_11_41
*851 FILLER_11_54
*852 FILLER_11_57
*853 FILLER_11_62
*854 FILLER_11_82
*855 FILLER_11_9
*856 FILLER_11_96
*857 FILLER_12_107
*858 FILLER_12_11
*859 FILLER_12_118
*860 FILLER_12_122
*861 FILLER_12_126
*862 FILLER_12_137
*863 FILLER_12_141
*864 FILLER_12_149
*865 FILLER_12_173
*866 FILLER_12_186
*867 FILLER_12_19
*868 FILLER_12_193
*869 FILLER_12_197
*870 FILLER_12_208
*871 FILLER_12_220
*872 FILLER_12_232
*873 FILLER_12_244
*874 FILLER_12_253
*875 FILLER_12_26
*876 FILLER_12_265
*877 FILLER_12_277
*878 FILLER_12_289
*879 FILLER_12_29
*880 FILLER_12_297
*881 FILLER_12_3
*882 FILLER_12_35
*883 FILLER_12_44
*884 FILLER_12_57
*885 FILLER_12_61
*886 FILLER_12_69
*887 FILLER_12_80
*888 FILLER_12_85
*889 FILLER_12_94
*890 FILLER_13_110
*891 FILLER_13_113
*892 FILLER_13_121
*893 FILLER_13_136
*894 FILLER_13_14
*895 FILLER_13_142
*896 FILLER_13_150
*897 FILLER_13_158
*898 FILLER_13_166
*899 FILLER_13_169
*900 FILLER_13_186
*901 FILLER_13_206
*902 FILLER_13_218
*903 FILLER_13_225
*904 FILLER_13_237
*905 FILLER_13_249
*906 FILLER_13_261
*907 FILLER_13_273
*908 FILLER_13_279
*909 FILLER_13_281
*910 FILLER_13_293
*911 FILLER_13_3
*912 FILLER_13_34
*913 FILLER_13_54
*914 FILLER_13_57
*915 FILLER_13_62
*916 FILLER_13_66
*917 FILLER_13_76
*918 FILLER_13_9
*919 FILLER_13_91
*920 FILLER_13_99
*921 FILLER_14_104
*922 FILLER_14_113
*923 FILLER_14_124
*924 FILLER_14_133
*925 FILLER_14_139
*926 FILLER_14_141
*927 FILLER_14_150
*928 FILLER_14_156
*929 FILLER_14_173
*930 FILLER_14_177
*931 FILLER_14_187
*932 FILLER_14_194
*933 FILLER_14_197
*934 FILLER_14_209
*935 FILLER_14_21
*936 FILLER_14_221
*937 FILLER_14_233
*938 FILLER_14_245
*939 FILLER_14_251
*940 FILLER_14_253
*941 FILLER_14_265
*942 FILLER_14_27
*943 FILLER_14_277
*944 FILLER_14_289
*945 FILLER_14_29
*946 FILLER_14_297
*947 FILLER_14_3
*948 FILLER_14_37
*949 FILLER_14_45
*950 FILLER_14_51
*951 FILLER_14_61
*952 FILLER_14_82
*953 FILLER_14_85
*954 FILLER_15_100
*955 FILLER_15_108
*956 FILLER_15_113
*957 FILLER_15_117
*958 FILLER_15_135
*959 FILLER_15_150
*960 FILLER_15_163
*961 FILLER_15_167
*962 FILLER_15_169
*963 FILLER_15_193
*964 FILLER_15_20
*965 FILLER_15_200
*966 FILLER_15_212
*967 FILLER_15_225
*968 FILLER_15_237
*969 FILLER_15_249
*970 FILLER_15_261
*971 FILLER_15_273
*972 FILLER_15_279
*973 FILLER_15_28
*974 FILLER_15_281
*975 FILLER_15_293
*976 FILLER_15_3
*977 FILLER_15_36
*978 FILLER_15_44
*979 FILLER_15_54
*980 FILLER_15_57
*981 FILLER_15_68
*982 FILLER_15_83
*983 FILLER_15_9
*984 FILLER_15_96
*985 FILLER_16_107
*986 FILLER_16_11
*987 FILLER_16_115
*988 FILLER_16_122
*989 FILLER_16_130
*990 FILLER_16_138
*991 FILLER_16_141
*992 FILLER_16_145
*993 FILLER_16_152
*994 FILLER_16_167
*995 FILLER_16_179
*996 FILLER_16_194
*997 FILLER_16_197
*998 FILLER_16_204
*999 FILLER_16_211
*1000 FILLER_16_223
*1001 FILLER_16_23
*1002 FILLER_16_235
*1003 FILLER_16_247
*1004 FILLER_16_251
*1005 FILLER_16_253
*1006 FILLER_16_265
*1007 FILLER_16_27
*1008 FILLER_16_277
*1009 FILLER_16_289
*1010 FILLER_16_29
*1011 FILLER_16_297
*1012 FILLER_16_3
*1013 FILLER_16_44
*1014 FILLER_16_48
*1015 FILLER_16_68
*1016 FILLER_16_72
*1017 FILLER_16_82
*1018 FILLER_16_85
*1019 FILLER_17_105
*1020 FILLER_17_111
*1021 FILLER_17_113
*1022 FILLER_17_124
*1023 FILLER_17_133
*1024 FILLER_17_139
*1025 FILLER_17_157
*1026 FILLER_17_166
*1027 FILLER_17_169
*1028 FILLER_17_180
*1029 FILLER_17_187
*1030 FILLER_17_207
*1031 FILLER_17_21
*1032 FILLER_17_214
*1033 FILLER_17_222
*1034 FILLER_17_225
*1035 FILLER_17_237
*1036 FILLER_17_249
*1037 FILLER_17_261
*1038 FILLER_17_273
*1039 FILLER_17_279
*1040 FILLER_17_281
*1041 FILLER_17_29
*1042 FILLER_17_293
*1043 FILLER_17_3
*1044 FILLER_17_46
*1045 FILLER_17_54
*1046 FILLER_17_57
*1047 FILLER_17_76
*1048 FILLER_17_82
*1049 FILLER_17_92
*1050 FILLER_18_106
*1051 FILLER_18_118
*1052 FILLER_18_138
*1053 FILLER_18_141
*1054 FILLER_18_15
*1055 FILLER_18_155
*1056 FILLER_18_159
*1057 FILLER_18_176
*1058 FILLER_18_185
*1059 FILLER_18_193
*1060 FILLER_18_197
*1061 FILLER_18_208
*1062 FILLER_18_220
*1063 FILLER_18_232
*1064 FILLER_18_244
*1065 FILLER_18_253
*1066 FILLER_18_26
*1067 FILLER_18_265
*1068 FILLER_18_277
*1069 FILLER_18_289
*1070 FILLER_18_29
*1071 FILLER_18_297
*1072 FILLER_18_3
*1073 FILLER_18_39
*1074 FILLER_18_47
*1075 FILLER_18_62
*1076 FILLER_18_69
*1077 FILLER_18_82
*1078 FILLER_18_85
*1079 FILLER_18_93
*1080 FILLER_19_102
*1081 FILLER_19_109
*1082 FILLER_19_113
*1083 FILLER_19_124
*1084 FILLER_19_139
*1085 FILLER_19_143
*1086 FILLER_19_150
*1087 FILLER_19_160
*1088 FILLER_19_169
*1089 FILLER_19_17
*1090 FILLER_19_189
*1091 FILLER_19_209
*1092 FILLER_19_221
*1093 FILLER_19_225
*1094 FILLER_19_237
*1095 FILLER_19_249
*1096 FILLER_19_261
*1097 FILLER_19_27
*1098 FILLER_19_273
*1099 FILLER_19_279
*1100 FILLER_19_281
*1101 FILLER_19_293
*1102 FILLER_19_3
*1103 FILLER_19_37
*1104 FILLER_19_50
*1105 FILLER_19_57
*1106 FILLER_19_74
*1107 FILLER_19_87
*1108 FILLER_1_110
*1109 FILLER_1_113
*1110 FILLER_1_119
*1111 FILLER_1_123
*1112 FILLER_1_143
*1113 FILLER_1_15
*1114 FILLER_1_163
*1115 FILLER_1_167
*1116 FILLER_1_169
*1117 FILLER_1_175
*1118 FILLER_1_185
*1119 FILLER_1_197
*1120 FILLER_1_209
*1121 FILLER_1_221
*1122 FILLER_1_225
*1123 FILLER_1_237
*1124 FILLER_1_249
*1125 FILLER_1_261
*1126 FILLER_1_27
*1127 FILLER_1_273
*1128 FILLER_1_279
*1129 FILLER_1_281
*1130 FILLER_1_293
*1131 FILLER_1_3
*1132 FILLER_1_39
*1133 FILLER_1_51
*1134 FILLER_1_55
*1135 FILLER_1_57
*1136 FILLER_1_69
*1137 FILLER_1_81
*1138 FILLER_1_90
*1139 FILLER_20_105
*1140 FILLER_20_121
*1141 FILLER_20_129
*1142 FILLER_20_138
*1143 FILLER_20_141
*1144 FILLER_20_150
*1145 FILLER_20_165
*1146 FILLER_20_172
*1147 FILLER_20_185
*1148 FILLER_20_194
*1149 FILLER_20_197
*1150 FILLER_20_202
*1151 FILLER_20_209
*1152 FILLER_20_21
*1153 FILLER_20_221
*1154 FILLER_20_233
*1155 FILLER_20_245
*1156 FILLER_20_251
*1157 FILLER_20_253
*1158 FILLER_20_265
*1159 FILLER_20_27
*1160 FILLER_20_277
*1161 FILLER_20_289
*1162 FILLER_20_29
*1163 FILLER_20_297
*1164 FILLER_20_3
*1165 FILLER_20_46
*1166 FILLER_20_59
*1167 FILLER_20_74
*1168 FILLER_20_81
*1169 FILLER_20_85
*1170 FILLER_21_103
*1171 FILLER_21_110
*1172 FILLER_21_113
*1173 FILLER_21_124
*1174 FILLER_21_132
*1175 FILLER_21_145
*1176 FILLER_21_149
*1177 FILLER_21_166
*1178 FILLER_21_169
*1179 FILLER_21_17
*1180 FILLER_21_182
*1181 FILLER_21_195
*1182 FILLER_21_202
*1183 FILLER_21_209
*1184 FILLER_21_21
*1185 FILLER_21_221
*1186 FILLER_21_225
*1187 FILLER_21_237
*1188 FILLER_21_249
*1189 FILLER_21_261
*1190 FILLER_21_273
*1191 FILLER_21_279
*1192 FILLER_21_28
*1193 FILLER_21_281
*1194 FILLER_21_293
*1195 FILLER_21_3
*1196 FILLER_21_32
*1197 FILLER_21_41
*1198 FILLER_21_54
*1199 FILLER_21_57
*1200 FILLER_21_7
*1201 FILLER_21_74
*1202 FILLER_21_85
*1203 FILLER_21_93
*1204 FILLER_22_101
*1205 FILLER_22_109
*1206 FILLER_22_126
*1207 FILLER_22_130
*1208 FILLER_22_138
*1209 FILLER_22_141
*1210 FILLER_22_150
*1211 FILLER_22_169
*1212 FILLER_22_17
*1213 FILLER_22_175
*1214 FILLER_22_192
*1215 FILLER_22_197
*1216 FILLER_22_208
*1217 FILLER_22_220
*1218 FILLER_22_232
*1219 FILLER_22_244
*1220 FILLER_22_253
*1221 FILLER_22_26
*1222 FILLER_22_265
*1223 FILLER_22_277
*1224 FILLER_22_289
*1225 FILLER_22_29
*1226 FILLER_22_297
*1227 FILLER_22_3
*1228 FILLER_22_35
*1229 FILLER_22_50
*1230 FILLER_22_54
*1231 FILLER_22_64
*1232 FILLER_22_7
*1233 FILLER_22_77
*1234 FILLER_22_83
*1235 FILLER_22_85
*1236 FILLER_22_91
*1237 FILLER_23_102
*1238 FILLER_23_110
*1239 FILLER_23_113
*1240 FILLER_23_121
*1241 FILLER_23_129
*1242 FILLER_23_135
*1243 FILLER_23_147
*1244 FILLER_23_151
*1245 FILLER_23_158
*1246 FILLER_23_166
*1247 FILLER_23_169
*1248 FILLER_23_187
*1249 FILLER_23_191
*1250 FILLER_23_208
*1251 FILLER_23_21
*1252 FILLER_23_220
*1253 FILLER_23_225
*1254 FILLER_23_237
*1255 FILLER_23_249
*1256 FILLER_23_25
*1257 FILLER_23_261
*1258 FILLER_23_273
*1259 FILLER_23_279
*1260 FILLER_23_281
*1261 FILLER_23_293
*1262 FILLER_23_3
*1263 FILLER_23_34
*1264 FILLER_23_45
*1265 FILLER_23_54
*1266 FILLER_23_57
*1267 FILLER_23_68
*1268 FILLER_23_79
*1269 FILLER_23_85
*1270 FILLER_24_10
*1271 FILLER_24_103
*1272 FILLER_24_116
*1273 FILLER_24_133
*1274 FILLER_24_139
*1275 FILLER_24_141
*1276 FILLER_24_149
*1277 FILLER_24_164
*1278 FILLER_24_168
*1279 FILLER_24_17
*1280 FILLER_24_178
*1281 FILLER_24_184
*1282 FILLER_24_194
*1283 FILLER_24_197
*1284 FILLER_24_202
*1285 FILLER_24_214
*1286 FILLER_24_226
*1287 FILLER_24_238
*1288 FILLER_24_250
*1289 FILLER_24_253
*1290 FILLER_24_26
*1291 FILLER_24_265
*1292 FILLER_24_277
*1293 FILLER_24_289
*1294 FILLER_24_29
*1295 FILLER_24_297
*1296 FILLER_24_3
*1297 FILLER_24_42
*1298 FILLER_24_52
*1299 FILLER_24_62
*1300 FILLER_24_75
*1301 FILLER_24_82
*1302 FILLER_24_85
*1303 FILLER_24_93
*1304 FILLER_25_10
*1305 FILLER_25_110
*1306 FILLER_25_113
*1307 FILLER_25_137
*1308 FILLER_25_146
*1309 FILLER_25_166
*1310 FILLER_25_169
*1311 FILLER_25_18
*1312 FILLER_25_182
*1313 FILLER_25_206
*1314 FILLER_25_213
*1315 FILLER_25_221
*1316 FILLER_25_225
*1317 FILLER_25_237
*1318 FILLER_25_249
*1319 FILLER_25_261
*1320 FILLER_25_27
*1321 FILLER_25_273
*1322 FILLER_25_279
*1323 FILLER_25_281
*1324 FILLER_25_293
*1325 FILLER_25_3
*1326 FILLER_25_37
*1327 FILLER_25_48
*1328 FILLER_25_57
*1329 FILLER_25_76
*1330 FILLER_25_84
*1331 FILLER_25_94
*1332 FILLER_26_103
*1333 FILLER_26_116
*1334 FILLER_26_128
*1335 FILLER_26_132
*1336 FILLER_26_138
*1337 FILLER_26_141
*1338 FILLER_26_155
*1339 FILLER_26_165
*1340 FILLER_26_185
*1341 FILLER_26_193
*1342 FILLER_26_197
*1343 FILLER_26_203
*1344 FILLER_26_21
*1345 FILLER_26_210
*1346 FILLER_26_222
*1347 FILLER_26_234
*1348 FILLER_26_246
*1349 FILLER_26_253
*1350 FILLER_26_265
*1351 FILLER_26_27
*1352 FILLER_26_277
*1353 FILLER_26_289
*1354 FILLER_26_29
*1355 FILLER_26_297
*1356 FILLER_26_3
*1357 FILLER_26_40
*1358 FILLER_26_50
*1359 FILLER_26_54
*1360 FILLER_26_61
*1361 FILLER_26_70
*1362 FILLER_26_80
*1363 FILLER_26_85
*1364 FILLER_27_100
*1365 FILLER_27_104
*1366 FILLER_27_110
*1367 FILLER_27_113
*1368 FILLER_27_119
*1369 FILLER_27_129
*1370 FILLER_27_14
*1371 FILLER_27_140
*1372 FILLER_27_147
*1373 FILLER_27_157
*1374 FILLER_27_166
*1375 FILLER_27_169
*1376 FILLER_27_186
*1377 FILLER_27_206
*1378 FILLER_27_213
*1379 FILLER_27_221
*1380 FILLER_27_225
*1381 FILLER_27_237
*1382 FILLER_27_249
*1383 FILLER_27_261
*1384 FILLER_27_273
*1385 FILLER_27_279
*1386 FILLER_27_281
*1387 FILLER_27_293
*1388 FILLER_27_3
*1389 FILLER_27_34
*1390 FILLER_27_40
*1391 FILLER_27_46
*1392 FILLER_27_54
*1393 FILLER_27_57
*1394 FILLER_27_63
*1395 FILLER_27_71
*1396 FILLER_27_80
*1397 FILLER_27_90
*1398 FILLER_28_105
*1399 FILLER_28_113
*1400 FILLER_28_131
*1401 FILLER_28_138
*1402 FILLER_28_141
*1403 FILLER_28_150
*1404 FILLER_28_174
*1405 FILLER_28_187
*1406 FILLER_28_194
*1407 FILLER_28_197
*1408 FILLER_28_208
*1409 FILLER_28_220
*1410 FILLER_28_232
*1411 FILLER_28_24
*1412 FILLER_28_244
*1413 FILLER_28_253
*1414 FILLER_28_265
*1415 FILLER_28_277
*1416 FILLER_28_289
*1417 FILLER_28_29
*1418 FILLER_28_297
*1419 FILLER_28_3
*1420 FILLER_28_33
*1421 FILLER_28_50
*1422 FILLER_28_70
*1423 FILLER_28_80
*1424 FILLER_28_85
*1425 FILLER_28_9
*1426 FILLER_28_92
*1427 FILLER_29_109
*1428 FILLER_29_113
*1429 FILLER_29_135
*1430 FILLER_29_147
*1431 FILLER_29_156
*1432 FILLER_29_164
*1433 FILLER_29_169
*1434 FILLER_29_180
*1435 FILLER_29_202
*1436 FILLER_29_214
*1437 FILLER_29_222
*1438 FILLER_29_225
*1439 FILLER_29_237
*1440 FILLER_29_24
*1441 FILLER_29_249
*1442 FILLER_29_261
*1443 FILLER_29_273
*1444 FILLER_29_279
*1445 FILLER_29_281
*1446 FILLER_29_293
*1447 FILLER_29_3
*1448 FILLER_29_31
*1449 FILLER_29_39
*1450 FILLER_29_52
*1451 FILLER_29_57
*1452 FILLER_29_69
*1453 FILLER_29_7
*1454 FILLER_29_89
*1455 FILLER_2_101
*1456 FILLER_2_109
*1457 FILLER_2_117
*1458 FILLER_2_134
*1459 FILLER_2_141
*1460 FILLER_2_15
*1461 FILLER_2_154
*1462 FILLER_2_174
*1463 FILLER_2_194
*1464 FILLER_2_197
*1465 FILLER_2_209
*1466 FILLER_2_221
*1467 FILLER_2_233
*1468 FILLER_2_245
*1469 FILLER_2_251
*1470 FILLER_2_253
*1471 FILLER_2_265
*1472 FILLER_2_27
*1473 FILLER_2_277
*1474 FILLER_2_289
*1475 FILLER_2_29
*1476 FILLER_2_297
*1477 FILLER_2_3
*1478 FILLER_2_41
*1479 FILLER_2_53
*1480 FILLER_2_65
*1481 FILLER_2_80
*1482 FILLER_2_85
*1483 FILLER_2_92
*1484 FILLER_30_105
*1485 FILLER_30_114
*1486 FILLER_30_126
*1487 FILLER_30_138
*1488 FILLER_30_141
*1489 FILLER_30_152
*1490 FILLER_30_160
*1491 FILLER_30_17
*1492 FILLER_30_182
*1493 FILLER_30_189
*1494 FILLER_30_195
*1495 FILLER_30_197
*1496 FILLER_30_209
*1497 FILLER_30_221
*1498 FILLER_30_233
*1499 FILLER_30_245
*1500 FILLER_30_251
*1501 FILLER_30_253
*1502 FILLER_30_26
*1503 FILLER_30_265
*1504 FILLER_30_277
*1505 FILLER_30_289
*1506 FILLER_30_29
*1507 FILLER_30_297
*1508 FILLER_30_3
*1509 FILLER_30_39
*1510 FILLER_30_45
*1511 FILLER_30_49
*1512 FILLER_30_58
*1513 FILLER_30_70
*1514 FILLER_30_78
*1515 FILLER_30_82
*1516 FILLER_30_85
*1517 FILLER_30_9
*1518 FILLER_30_96
*1519 FILLER_31_10
*1520 FILLER_31_100
*1521 FILLER_31_110
*1522 FILLER_31_113
*1523 FILLER_31_126
*1524 FILLER_31_133
*1525 FILLER_31_137
*1526 FILLER_31_145
*1527 FILLER_31_160
*1528 FILLER_31_169
*1529 FILLER_31_174
*1530 FILLER_31_183
*1531 FILLER_31_203
*1532 FILLER_31_215
*1533 FILLER_31_223
*1534 FILLER_31_225
*1535 FILLER_31_237
*1536 FILLER_31_249
*1537 FILLER_31_261
*1538 FILLER_31_27
*1539 FILLER_31_273
*1540 FILLER_31_279
*1541 FILLER_31_281
*1542 FILLER_31_293
*1543 FILLER_31_3
*1544 FILLER_31_37
*1545 FILLER_31_43
*1546 FILLER_31_53
*1547 FILLER_31_57
*1548 FILLER_31_64
*1549 FILLER_31_76
*1550 FILLER_31_86
*1551 FILLER_31_96
*1552 FILLER_32_116
*1553 FILLER_32_126
*1554 FILLER_32_133
*1555 FILLER_32_139
*1556 FILLER_32_141
*1557 FILLER_32_148
*1558 FILLER_32_168
*1559 FILLER_32_175
*1560 FILLER_32_181
*1561 FILLER_32_191
*1562 FILLER_32_195
*1563 FILLER_32_197
*1564 FILLER_32_209
*1565 FILLER_32_221
*1566 FILLER_32_233
*1567 FILLER_32_245
*1568 FILLER_32_251
*1569 FILLER_32_253
*1570 FILLER_32_26
*1571 FILLER_32_265
*1572 FILLER_32_277
*1573 FILLER_32_289
*1574 FILLER_32_29
*1575 FILLER_32_297
*1576 FILLER_32_3
*1577 FILLER_32_35
*1578 FILLER_32_52
*1579 FILLER_32_72
*1580 FILLER_32_80
*1581 FILLER_32_85
*1582 FILLER_32_9
*1583 FILLER_32_96
*1584 FILLER_33_107
*1585 FILLER_33_111
*1586 FILLER_33_113
*1587 FILLER_33_126
*1588 FILLER_33_136
*1589 FILLER_33_146
*1590 FILLER_33_159
*1591 FILLER_33_167
*1592 FILLER_33_169
*1593 FILLER_33_180
*1594 FILLER_33_200
*1595 FILLER_33_21
*1596 FILLER_33_212
*1597 FILLER_33_225
*1598 FILLER_33_237
*1599 FILLER_33_249
*1600 FILLER_33_261
*1601 FILLER_33_273
*1602 FILLER_33_279
*1603 FILLER_33_281
*1604 FILLER_33_293
*1605 FILLER_33_3
*1606 FILLER_33_37
*1607 FILLER_33_49
*1608 FILLER_33_55
*1609 FILLER_33_57
*1610 FILLER_33_74
*1611 FILLER_33_8
*1612 FILLER_33_80
*1613 FILLER_33_97
*1614 FILLER_34_103
*1615 FILLER_34_123
*1616 FILLER_34_127
*1617 FILLER_34_136
*1618 FILLER_34_141
*1619 FILLER_34_145
*1620 FILLER_34_162
*1621 FILLER_34_182
*1622 FILLER_34_189
*1623 FILLER_34_195
*1624 FILLER_34_197
*1625 FILLER_34_209
*1626 FILLER_34_21
*1627 FILLER_34_221
*1628 FILLER_34_233
*1629 FILLER_34_245
*1630 FILLER_34_251
*1631 FILLER_34_253
*1632 FILLER_34_265
*1633 FILLER_34_27
*1634 FILLER_34_277
*1635 FILLER_34_289
*1636 FILLER_34_29
*1637 FILLER_34_297
*1638 FILLER_34_3
*1639 FILLER_34_39
*1640 FILLER_34_52
*1641 FILLER_34_61
*1642 FILLER_34_68
*1643 FILLER_34_78
*1644 FILLER_34_85
*1645 FILLER_34_94
*1646 FILLER_35_10
*1647 FILLER_35_106
*1648 FILLER_35_113
*1649 FILLER_35_124
*1650 FILLER_35_134
*1651 FILLER_35_144
*1652 FILLER_35_154
*1653 FILLER_35_161
*1654 FILLER_35_167
*1655 FILLER_35_169
*1656 FILLER_35_174
*1657 FILLER_35_18
*1658 FILLER_35_182
*1659 FILLER_35_193
*1660 FILLER_35_205
*1661 FILLER_35_217
*1662 FILLER_35_223
*1663 FILLER_35_225
*1664 FILLER_35_237
*1665 FILLER_35_249
*1666 FILLER_35_261
*1667 FILLER_35_273
*1668 FILLER_35_279
*1669 FILLER_35_28
*1670 FILLER_35_281
*1671 FILLER_35_293
*1672 FILLER_35_3
*1673 FILLER_35_52
*1674 FILLER_35_57
*1675 FILLER_35_74
*1676 FILLER_35_85
*1677 FILLER_35_89
*1678 FILLER_36_104
*1679 FILLER_36_114
*1680 FILLER_36_122
*1681 FILLER_36_132
*1682 FILLER_36_141
*1683 FILLER_36_156
*1684 FILLER_36_166
*1685 FILLER_36_173
*1686 FILLER_36_177
*1687 FILLER_36_194
*1688 FILLER_36_197
*1689 FILLER_36_208
*1690 FILLER_36_220
*1691 FILLER_36_232
*1692 FILLER_36_244
*1693 FILLER_36_253
*1694 FILLER_36_26
*1695 FILLER_36_265
*1696 FILLER_36_277
*1697 FILLER_36_289
*1698 FILLER_36_29
*1699 FILLER_36_297
*1700 FILLER_36_3
*1701 FILLER_36_33
*1702 FILLER_36_37
*1703 FILLER_36_50
*1704 FILLER_36_58
*1705 FILLER_36_76
*1706 FILLER_36_85
*1707 FILLER_36_9
*1708 FILLER_37_10
*1709 FILLER_37_106
*1710 FILLER_37_113
*1711 FILLER_37_125
*1712 FILLER_37_138
*1713 FILLER_37_157
*1714 FILLER_37_166
*1715 FILLER_37_169
*1716 FILLER_37_18
*1717 FILLER_37_187
*1718 FILLER_37_194
*1719 FILLER_37_206
*1720 FILLER_37_218
*1721 FILLER_37_225
*1722 FILLER_37_237
*1723 FILLER_37_249
*1724 FILLER_37_261
*1725 FILLER_37_273
*1726 FILLER_37_279
*1727 FILLER_37_281
*1728 FILLER_37_29
*1729 FILLER_37_293
*1730 FILLER_37_3
*1731 FILLER_37_49
*1732 FILLER_37_55
*1733 FILLER_37_57
*1734 FILLER_37_70
*1735 FILLER_37_78
*1736 FILLER_37_90
*1737 FILLER_37_96
*1738 FILLER_38_102
*1739 FILLER_38_109
*1740 FILLER_38_115
*1741 FILLER_38_122
*1742 FILLER_38_137
*1743 FILLER_38_141
*1744 FILLER_38_145
*1745 FILLER_38_162
*1746 FILLER_38_177
*1747 FILLER_38_190
*1748 FILLER_38_197
*1749 FILLER_38_209
*1750 FILLER_38_221
*1751 FILLER_38_233
*1752 FILLER_38_245
*1753 FILLER_38_251
*1754 FILLER_38_253
*1755 FILLER_38_26
*1756 FILLER_38_265
*1757 FILLER_38_277
*1758 FILLER_38_289
*1759 FILLER_38_29
*1760 FILLER_38_297
*1761 FILLER_38_3