*SPEF "ieee 1481-1999"
*DESIGN "jar_pi"
*DATE "11:11:11 Fri 11 11, 1111"
*VENDOR "OpenRCX"
*PROGRAM "Parallel Extraction"
*VERSION "1.0"
*DESIGN_FLOW "NAME_SCOPE LOCAL" "PIN_CAP NONE"
*DIVIDER /
*DELIMITER :
*BUS_DELIMITER []
*T_UNIT 1 NS
*C_UNIT 1 PF
*R_UNIT 1 OHM
*L_UNIT 1 HENRY

*NAME_MAP
*1 io_in[0]
*2 io_in[1]
*3 io_in[2]
*4 io_in[3]
*5 io_in[4]
*6 io_in[5]
*7 io_in[6]
*8 io_in[7]
*9 io_out[0]
*10 io_out[1]
*11 io_out[2]
*12 io_out[3]
*13 io_out[4]
*14 io_out[5]
*15 io_out[6]
*16 io_out[7]
*19 _0000_
*20 _0001_
*21 _0002_
*22 _0003_
*23 _0004_
*24 _0005_
*25 _0006_
*26 _0007_
*27 _0008_
*28 _0009_
*29 _0010_
*30 _0011_
*31 _0012_
*32 _0013_
*33 _0014_
*34 _0015_
*35 _0016_
*36 _0017_
*37 _0018_
*38 _0019_
*39 _0020_
*40 _0021_
*41 _0022_
*42 _0023_
*43 _0024_
*44 _0025_
*45 _0026_
*46 _0027_
*47 _0028_
*48 _0029_
*49 _0030_
*50 _0031_
*51 _0032_
*52 _0033_
*53 _0034_
*54 _0035_
*55 _0036_
*56 _0037_
*57 _0038_
*58 _0039_
*59 _0040_
*60 _0041_
*61 _0042_
*62 _0043_
*63 _0044_
*64 _0045_
*65 _0046_
*66 _0047_
*67 _0048_
*68 _0049_
*69 _0050_
*70 _0051_
*71 _0052_
*72 _0053_
*73 _0054_
*74 _0055_
*75 _0056_
*76 _0057_
*77 _0058_
*78 _0059_
*79 _0060_
*80 _0061_
*81 _0062_
*82 _0063_
*83 _0064_
*84 _0065_
*85 _0066_
*86 _0067_
*87 _0068_
*88 _0069_
*89 _0070_
*90 _0071_
*91 _0072_
*92 _0073_
*93 _0074_
*94 _0075_
*95 _0076_
*96 _0077_
*97 _0078_
*98 _0079_
*99 _0080_
*100 _0081_
*101 _0082_
*102 _0083_
*103 _0084_
*104 _0085_
*105 _0086_
*106 _0087_
*107 _0088_
*108 _0089_
*109 _0090_
*110 _0091_
*111 _0092_
*112 _0093_
*113 _0094_
*114 _0095_
*115 _0096_
*116 _0097_
*117 _0098_
*118 _0099_
*119 _0100_
*120 _0101_
*121 _0102_
*122 _0103_
*123 _0104_
*124 _0105_
*125 _0106_
*126 _0107_
*127 _0108_
*128 _0109_
*129 _0110_
*130 _0111_
*131 _0112_
*132 _0113_
*133 _0114_
*134 _0115_
*135 _0116_
*136 _0117_
*137 _0118_
*138 _0119_
*139 _0120_
*140 _0121_
*141 _0122_
*142 _0123_
*143 _0124_
*144 _0125_
*145 _0126_
*146 _0127_
*147 _0128_
*148 _0129_
*149 _0130_
*150 _0131_
*151 _0132_
*152 _0133_
*153 _0134_
*154 _0135_
*155 _0136_
*156 _0137_
*157 _0138_
*158 _0139_
*159 _0140_
*160 _0141_
*161 _0142_
*162 _0143_
*163 _0144_
*164 _0145_
*165 _0146_
*166 _0147_
*167 _0148_
*168 _0149_
*169 _0150_
*170 _0151_
*171 _0152_
*172 _0153_
*173 _0154_
*174 _0155_
*175 _0156_
*176 _0157_
*177 _0158_
*178 _0159_
*179 _0160_
*180 _0161_
*181 _0162_
*182 _0163_
*183 _0164_
*184 _0165_
*185 _0166_
*186 _0167_
*187 _0168_
*188 _0169_
*189 _0170_
*190 _0171_
*191 _0172_
*192 _0173_
*193 _0174_
*194 _0175_
*195 _0176_
*196 _0177_
*197 _0178_
*198 _0179_
*199 _0180_
*200 _0181_
*201 _0182_
*202 _0183_
*203 _0184_
*204 _0185_
*205 _0186_
*206 _0187_
*207 _0188_
*208 _0189_
*209 _0190_
*210 _0191_
*211 _0192_
*212 _0193_
*213 _0194_
*214 _0195_
*215 _0196_
*216 _0197_
*217 _0198_
*218 _0199_
*219 _0200_
*220 _0201_
*221 _0202_
*222 _0203_
*223 _0204_
*224 _0205_
*225 _0206_
*226 _0207_
*227 _0208_
*228 _0209_
*229 _0210_
*230 _0211_
*231 _0212_
*232 _0213_
*233 _0214_
*234 _0215_
*235 _0216_
*236 _0217_
*237 _0218_
*238 _0219_
*239 _0220_
*240 _0221_
*241 _0222_
*242 _0223_
*243 _0224_
*244 _0225_
*245 _0226_
*246 _0227_
*247 _0228_
*248 _0229_
*249 _0230_
*250 _0231_
*251 _0232_
*252 _0233_
*253 _0234_
*254 _0235_
*255 _0236_
*256 _0237_
*257 _0238_
*258 _0239_
*259 _0240_
*260 _0241_
*261 _0242_
*262 _0243_
*263 _0244_
*264 _0245_
*265 _0246_
*266 _0247_
*267 _0248_
*268 _0249_
*269 _0250_
*270 _0251_
*271 _0252_
*272 _0253_
*273 _0254_
*274 _0255_
*275 _0256_
*276 _0257_
*277 _0258_
*278 _0259_
*279 _0260_
*280 _0261_
*281 _0262_
*282 _0263_
*283 _0264_
*284 _0265_
*285 _0266_
*286 _0267_
*287 _0268_
*288 _0269_
*289 _0270_
*290 _0271_
*291 _0272_
*292 _0273_
*293 _0274_
*294 _0275_
*295 _0276_
*296 _0277_
*297 _0278_
*298 _0279_
*299 _0280_
*300 _0281_
*301 _0282_
*302 _0283_
*303 _0284_
*304 _0285_
*305 _0286_
*306 _0287_
*307 _0288_
*308 _0289_
*309 _0290_
*310 _0291_
*311 _0292_
*312 _0293_
*313 _0294_
*314 _0295_
*315 _0296_
*316 _0297_
*317 _0298_
*318 _0299_
*319 _0300_
*320 _0301_
*321 _0302_
*322 _0303_
*323 _0304_
*324 _0305_
*325 _0306_
*326 _0307_
*327 _0308_
*328 _0309_
*329 _0310_
*330 _0311_
*331 _0312_
*332 _0313_
*333 _0314_
*334 _0315_
*335 _0316_
*336 _0317_
*337 _0318_
*338 _0319_
*339 _0320_
*340 _0321_
*341 _0322_
*342 _0323_
*343 _0324_
*344 _0325_
*345 _0326_
*346 _0327_
*347 _0328_
*348 _0329_
*349 _0330_
*350 _0331_
*351 _0332_
*352 _0333_
*353 _0334_
*354 _0335_
*355 _0336_
*356 _0337_
*357 _0338_
*358 _0339_
*359 _0340_
*360 _0341_
*361 _0342_
*362 _0343_
*363 _0344_
*364 _0345_
*365 _0346_
*366 _0347_
*367 _0348_
*368 _0349_
*369 _0350_
*370 _0351_
*371 _0352_
*372 _0353_
*373 _0354_
*374 _0355_
*375 _0356_
*376 _0357_
*377 _0358_
*378 _0359_
*379 _0360_
*380 _0361_
*381 _0362_
*382 _0363_
*383 _0364_
*384 _0365_
*385 _0366_
*386 _0367_
*387 _0368_
*388 _0369_
*389 _0370_
*390 _0371_
*391 _0372_
*392 _0373_
*393 _0374_
*394 _0375_
*395 _0376_
*396 _0377_
*397 _0378_
*398 _0379_
*399 _0380_
*400 _0381_
*401 _0382_
*402 _0383_
*403 _0384_
*404 _0385_
*405 _0386_
*406 _0387_
*407 _0388_
*408 _0389_
*409 _0390_
*410 _0391_
*411 _0392_
*412 _0393_
*413 _0394_
*414 _0395_
*415 _0396_
*416 _0397_
*417 _0398_
*418 _0399_
*419 _0400_
*420 _0401_
*421 _0402_
*422 _0403_
*423 _0404_
*424 _0405_
*425 _0406_
*426 _0407_
*427 _0408_
*428 _0409_
*429 _0410_
*430 _0411_
*431 _0412_
*432 _0413_
*433 _0414_
*434 _0415_
*435 _0416_
*436 _0417_
*437 _0418_
*438 _0419_
*439 _0420_
*440 _0421_
*441 _0422_
*442 _0423_
*443 _0424_
*444 _0425_
*445 _0426_
*446 _0427_
*447 _0428_
*448 _0429_
*449 _0430_
*450 _0431_
*451 _0432_
*452 _0433_
*453 _0434_
*454 _0435_
*455 _0436_
*456 _0437_
*457 _0438_
*458 _0439_
*459 _0440_
*460 _0441_
*461 _0442_
*462 _0443_
*463 _0444_
*464 _0445_
*465 _0446_
*466 _0447_
*467 _0448_
*468 _0449_
*469 _0450_
*470 _0451_
*471 _0452_
*472 _0453_
*473 _0454_
*474 _0455_
*475 _0456_
*476 _0457_
*477 _0458_
*478 _0459_
*479 _0460_
*480 _0461_
*481 _0462_
*482 _0463_
*483 _0464_
*484 _0465_
*485 _0466_
*486 _0467_
*487 _0468_
*488 _0469_
*489 _0470_
*490 _0471_
*491 _0472_
*492 _0473_
*493 _0474_
*494 _0475_
*495 _0476_
*496 _0477_
*497 _0478_
*498 _0479_
*499 _0480_
*500 _0481_
*501 _0482_
*502 _0483_
*503 _0484_
*504 _0485_
*505 _0486_
*506 _0487_
*507 _0488_
*508 _0489_
*509 _0490_
*510 _0491_
*511 _0492_
*512 _0493_
*513 _0494_
*514 _0495_
*515 _0496_
*516 _0497_
*517 _0498_
*518 _0499_
*519 _0500_
*520 _0501_
*521 _0502_
*522 _0503_
*523 _0504_
*524 _0505_
*525 _0506_
*526 _0507_
*527 _0508_
*528 _0509_
*529 _0510_
*530 _0511_
*531 _0512_
*532 _0513_
*533 _0514_
*534 _0515_
*535 _0516_
*536 _0517_
*537 _0518_
*538 _0519_
*539 _0520_
*540 _0521_
*541 _0522_
*542 _0523_
*543 _0524_
*544 _0525_
*545 _0526_
*546 _0527_
*547 _0528_
*548 _0529_
*549 _0530_
*550 _0531_
*551 _0532_
*552 _0533_
*553 _0534_
*554 _0535_
*555 _0536_
*556 _0537_
*557 _0538_
*558 _0539_
*559 _0540_
*560 _0541_
*561 _0542_
*562 _0543_
*563 _0544_
*564 _0545_
*565 _0546_
*566 _0547_
*567 _0548_
*568 _0549_
*569 _0550_
*570 _0551_
*571 _0552_
*572 _0553_
*573 _0554_
*574 _0555_
*575 _0556_
*576 _0557_
*577 _0558_
*578 _0559_
*579 _0560_
*580 _0561_
*581 _0562_
*582 _0563_
*583 _0564_
*584 _0565_
*585 _0566_
*586 _0567_
*587 _0568_
*588 _0569_
*589 _0570_
*590 _0571_
*591 _0572_
*592 _0573_
*593 _0574_
*594 _0575_
*595 _0576_
*596 _0577_
*597 _0578_
*598 _0579_
*599 _0580_
*600 _0581_
*601 _0582_
*602 _0583_
*603 _0584_
*604 _0585_
*605 _0586_
*606 _0587_
*607 _0588_
*608 _0589_
*609 _0590_
*610 _0591_
*611 _0592_
*612 _0593_
*613 _0594_
*614 _0595_
*615 _0596_
*616 _0597_
*617 _0598_
*618 _0599_
*619 _0600_
*620 _0601_
*621 _0602_
*622 _0603_
*623 _0604_
*624 _0605_
*625 _0606_
*626 _0607_
*627 _0608_
*628 _0609_
*629 _0610_
*630 _0611_
*631 _0612_
*632 _0613_
*633 _0614_
*634 _0615_
*635 _0616_
*636 _0617_
*637 _0618_
*638 _0619_
*639 _0620_
*640 _0621_
*641 _0622_
*642 _0623_
*643 _0624_
*644 _0625_
*645 _0626_
*646 _0627_
*647 _0628_
*648 _0629_
*649 _0630_
*650 _0631_
*651 _0632_
*652 _0633_
*653 _0634_
*654 _0635_
*655 _0636_
*656 _0637_
*657 _0638_
*658 _0639_
*659 _0640_
*660 _0641_
*661 _0642_
*662 _0643_
*663 _0644_
*664 _0645_
*665 _0646_
*666 _0647_
*667 _0648_
*668 _0649_
*669 _0650_
*670 _0651_
*671 _0652_
*672 _0653_
*673 _0654_
*674 _0655_
*675 _0656_
*676 _0657_
*677 _0658_
*678 _0659_
*679 _0660_
*680 _0661_
*681 _0662_
*682 _0663_
*683 _0664_
*684 _0665_
*685 _0666_
*686 _0667_
*687 _0668_
*688 _0669_
*689 _0670_
*690 _0671_
*691 _0672_
*692 _0673_
*693 _0674_
*694 _0675_
*695 _0676_
*696 _0677_
*697 _0678_
*698 _0679_
*699 _0680_
*700 _0681_
*701 _0682_
*702 _0683_
*703 _0684_
*704 _0685_
*705 _0686_
*706 _0687_
*707 _0688_
*708 _0689_
*709 _0690_
*710 _0691_
*711 _0692_
*712 _0693_
*713 _0694_
*714 _0695_
*715 _0696_
*716 _0697_
*717 _0698_
*718 _0699_
*719 _0700_
*720 _0701_
*721 _0702_
*722 _0703_
*723 _0704_
*724 _0705_
*725 _0706_
*726 _0707_
*727 _0708_
*728 _0709_
*729 _0710_
*730 _0711_
*731 _0712_
*732 _0713_
*733 _0714_
*734 _0715_
*735 _0716_
*736 _0717_
*737 _0718_
*738 _0719_
*739 _0720_
*740 _0721_
*741 _0722_
*742 _0723_
*743 _0724_
*744 _0725_
*745 _0726_
*746 _0727_
*747 _0728_
*748 _0729_
*749 _0730_
*750 _0731_
*751 _0732_
*752 _0733_
*753 _0734_
*754 _0735_
*755 _0736_
*756 _0737_
*757 _0738_
*758 _0739_
*759 clknet_0_io_in[0]
*760 clknet_1_0__leaf_io_in[0]
*761 clknet_1_1__leaf_io_in[0]
*762 decoder\.code\[0\]
*763 decoder\.code\[1\]
*764 decoder\.code\[2\]
*765 decoder\.code\[3\]
*766 index\[0\]
*767 index\[1\]
*768 index\[2\]
*769 index\[3\]
*770 index\[4\]
*771 index\[5\]
*772 index\[6\]
*773 index\[7\]
*774 index\[8\]
*775 index\[9\]
*776 net1
*777 ANTENNA_1
*778 ANTENNA_10
*779 ANTENNA_11
*780 ANTENNA_12
*781 ANTENNA_13
*782 ANTENNA_2
*783 ANTENNA_3
*784 ANTENNA_4
*785 ANTENNA_5
*786 ANTENNA_6
*787 ANTENNA_7
*788 ANTENNA_8
*789 ANTENNA_9
*790 FILLER_0_110
*791 FILLER_0_113
*792 FILLER_0_117
*793 FILLER_0_124
*794 FILLER_0_134
*795 FILLER_0_141
*796 FILLER_0_15
*797 FILLER_0_154
*798 FILLER_0_164
*799 FILLER_0_169
*800 FILLER_0_177
*801 FILLER_0_184
*802 FILLER_0_194
*803 FILLER_0_197
*804 FILLER_0_205
*805 FILLER_0_215
*806 FILLER_0_223
*807 FILLER_0_225
*808 FILLER_0_237
*809 FILLER_0_249
*810 FILLER_0_253
*811 FILLER_0_265
*812 FILLER_0_27
*813 FILLER_0_277
*814 FILLER_0_281
*815 FILLER_0_29
*816 FILLER_0_293
*817 FILLER_0_3
*818 FILLER_0_41
*819 FILLER_0_53
*820 FILLER_0_57
*821 FILLER_0_69
*822 FILLER_0_81
*823 FILLER_0_85
*824 FILLER_0_97
*825 FILLER_10_109
*826 FILLER_10_119
*827 FILLER_10_123
*828 FILLER_10_128
*829 FILLER_10_138
*830 FILLER_10_141
*831 FILLER_10_15
*832 FILLER_10_155
*833 FILLER_10_166
*834 FILLER_10_172
*835 FILLER_10_182
*836 FILLER_10_192
*837 FILLER_10_197
*838 FILLER_10_205
*839 FILLER_10_215
*840 FILLER_10_225
*841 FILLER_10_234
*842 FILLER_10_242
*843 FILLER_10_250
*844 FILLER_10_253
*845 FILLER_10_265
*846 FILLER_10_27
*847 FILLER_10_277
*848 FILLER_10_289
*849 FILLER_10_29
*850 FILLER_10_297
*851 FILLER_10_3
*852 FILLER_10_41
*853 FILLER_10_47
*854 FILLER_10_59
*855 FILLER_10_66
*856 FILLER_10_70
*857 FILLER_10_74
*858 FILLER_10_82
*859 FILLER_10_85
*860 FILLER_10_97
*861 FILLER_11_105
*862 FILLER_11_110
*863 FILLER_11_113
*864 FILLER_11_119
*865 FILLER_11_127
*866 FILLER_11_139
*867 FILLER_11_15
*868 FILLER_11_151
*869 FILLER_11_166
*870 FILLER_11_169
*871 FILLER_11_177
*872 FILLER_11_194
*873 FILLER_11_207
*874 FILLER_11_217
*875 FILLER_11_223
*876 FILLER_11_225
*877 FILLER_11_233
*878 FILLER_11_243
*879 FILLER_11_255
*880 FILLER_11_267
*881 FILLER_11_27
*882 FILLER_11_279
*883 FILLER_11_281
*884 FILLER_11_293
*885 FILLER_11_3
*886 FILLER_11_39
*887 FILLER_11_51
*888 FILLER_11_55
*889 FILLER_11_57
*890 FILLER_11_67
*891 FILLER_11_73
*892 FILLER_11_77
*893 FILLER_11_87
*894 FILLER_11_93
*895 FILLER_11_99
*896 FILLER_12_103
*897 FILLER_12_111
*898 FILLER_12_117
*899 FILLER_12_125
*900 FILLER_12_133
*901 FILLER_12_139
*902 FILLER_12_141
*903 FILLER_12_147
*904 FILLER_12_153
*905 FILLER_12_161
*906 FILLER_12_167
*907 FILLER_12_174
*908 FILLER_12_182
*909 FILLER_12_192
*910 FILLER_12_197
*911 FILLER_12_205
*912 FILLER_12_213
*913 FILLER_12_221
*914 FILLER_12_227
*915 FILLER_12_237
*916 FILLER_12_247
*917 FILLER_12_25
*918 FILLER_12_251
*919 FILLER_12_253
*920 FILLER_12_265
*921 FILLER_12_277
*922 FILLER_12_289
*923 FILLER_12_29
*924 FILLER_12_297
*925 FILLER_12_3
*926 FILLER_12_41
*927 FILLER_12_45
*928 FILLER_12_55
*929 FILLER_12_70
*930 FILLER_12_82
*931 FILLER_12_85
*932 FILLER_12_89
*933 FILLER_12_93
*934 FILLER_13_106
*935 FILLER_13_113
*936 FILLER_13_124
*937 FILLER_13_13
*938 FILLER_13_135
*939 FILLER_13_145
*940 FILLER_13_149
*941 FILLER_13_156
*942 FILLER_13_164
*943 FILLER_13_169
*944 FILLER_13_175
*945 FILLER_13_182
*946 FILLER_13_192
*947 FILLER_13_216
*948 FILLER_13_225
*949 FILLER_13_233
*950 FILLER_13_242
*951 FILLER_13_25
*952 FILLER_13_254
*953 FILLER_13_266
*954 FILLER_13_278
*955 FILLER_13_281
*956 FILLER_13_29
*957 FILLER_13_293
*958 FILLER_13_3
*959 FILLER_13_51
*960 FILLER_13_55
*961 FILLER_13_57
*962 FILLER_13_66
*963 FILLER_13_80
*964 FILLER_13_9
*965 FILLER_13_95
*966 FILLER_14_103
*967 FILLER_14_115
*968 FILLER_14_128
*969 FILLER_14_138
*970 FILLER_14_141
*971 FILLER_14_146
*972 FILLER_14_159
*973 FILLER_14_163
*974 FILLER_14_172
*975 FILLER_14_179
*976 FILLER_14_187
*977 FILLER_14_194
*978 FILLER_14_197
*979 FILLER_14_20
*980 FILLER_14_205
*981 FILLER_14_215
*982 FILLER_14_225
*983 FILLER_14_235
*984 FILLER_14_247
*985 FILLER_14_251
*986 FILLER_14_253
*987 FILLER_14_265
*988 FILLER_14_277
*989 FILLER_14_289
*990 FILLER_14_29
*991 FILLER_14_297
*992 FILLER_14_3
*993 FILLER_14_37
*994 FILLER_14_45
*995 FILLER_14_49
*996 FILLER_14_56
*997 FILLER_14_66
*998 FILLER_14_81
*999 FILLER_14_85
*1000 FILLER_14_9
*1001 FILLER_14_92
*1002 FILLER_15_103
*1003 FILLER_15_11
*1004 FILLER_15_111
*1005 FILLER_15_113
*1006 FILLER_15_122
*1007 FILLER_15_128
*1008 FILLER_15_134
*1009 FILLER_15_145
*1010 FILLER_15_152
*1011 FILLER_15_166
*1012 FILLER_15_169
*1013 FILLER_15_178
*1014 FILLER_15_19
*1015 FILLER_15_192
*1016 FILLER_15_202
*1017 FILLER_15_214
*1018 FILLER_15_222
*1019 FILLER_15_225
*1020 FILLER_15_235
*1021 FILLER_15_243
*1022 FILLER_15_255
*1023 FILLER_15_26
*1024 FILLER_15_267
*1025 FILLER_15_279
*1026 FILLER_15_281
*1027 FILLER_15_293
*1028 FILLER_15_3
*1029 FILLER_15_33
*1030 FILLER_15_39
*1031 FILLER_15_48
*1032 FILLER_15_57
*1033 FILLER_15_66
*1034 FILLER_15_78
*1035 FILLER_15_85
*1036 FILLER_15_93
*1037 FILLER_16_102
*1038 FILLER_16_106
*1039 FILLER_16_110
*1040 FILLER_16_122
*1041 FILLER_16_129
*1042 FILLER_16_138
*1043 FILLER_16_141
*1044 FILLER_16_158
*1045 FILLER_16_166
*1046 FILLER_16_174
*1047 FILLER_16_181
*1048 FILLER_16_194
*1049 FILLER_16_197
*1050 FILLER_16_202
*1051 FILLER_16_214
*1052 FILLER_16_219
*1053 FILLER_16_231
*1054 FILLER_16_24
*1055 FILLER_16_243
*1056 FILLER_16_251
*1057 FILLER_16_253
*1058 FILLER_16_265
*1059 FILLER_16_277
*1060 FILLER_16_289
*1061 FILLER_16_29
*1062 FILLER_16_297
*1063 FILLER_16_3
*1064 FILLER_16_38
*1065 FILLER_16_46
*1066 FILLER_16_58
*1067 FILLER_16_69
*1068 FILLER_16_7
*1069 FILLER_16_81
*1070 FILLER_16_85
*1071 FILLER_16_93
*1072 FILLER_17_11
*1073 FILLER_17_110
*1074 FILLER_17_113
*1075 FILLER_17_121
*1076 FILLER_17_129
*1077 FILLER_17_133
*1078 FILLER_17_140
*1079 FILLER_17_152
*1080 FILLER_17_164
*1081 FILLER_17_169
*1082 FILLER_17_181
*1083 FILLER_17_190
*1084 FILLER_17_202
*1085 FILLER_17_211
*1086 FILLER_17_223
*1087 FILLER_17_225
*1088 FILLER_17_232
*1089 FILLER_17_236
*1090 FILLER_17_254
*1091 FILLER_17_266
*1092 FILLER_17_278
*1093 FILLER_17_281
*1094 FILLER_17_293
*1095 FILLER_17_3
*1096 FILLER_17_32
*1097 FILLER_17_49
*1098 FILLER_17_55
*1099 FILLER_17_57
*1100 FILLER_17_65
*1101 FILLER_17_77
*1102 FILLER_17_87
*1103 FILLER_17_91
*1104 FILLER_17_98
*1105 FILLER_18_101
*1106 FILLER_18_111
*1107 FILLER_18_118
*1108 FILLER_18_129
*1109 FILLER_18_137
*1110 FILLER_18_141
*1111 FILLER_18_149
*1112 FILLER_18_157
*1113 FILLER_18_16
*1114 FILLER_18_169
*1115 FILLER_18_182
*1116 FILLER_18_192
*1117 FILLER_18_197
*1118 FILLER_18_210
*1119 FILLER_18_218
*1120 FILLER_18_225
*1121 FILLER_18_241
*1122 FILLER_18_249
*1123 FILLER_18_253
*1124 FILLER_18_26
*1125 FILLER_18_265
*1126 FILLER_18_277
*1127 FILLER_18_289
*1128 FILLER_18_29
*1129 FILLER_18_297
*1130 FILLER_18_3
*1131 FILLER_18_37
*1132 FILLER_18_43
*1133 FILLER_18_53
*1134 FILLER_18_58
*1135 FILLER_18_65
*1136 FILLER_18_73
*1137 FILLER_18_82
*1138 FILLER_18_85
*1139 FILLER_18_9
*1140 FILLER_18_93
*1141 FILLER_19_10
*1142 FILLER_19_108
*1143 FILLER_19_113
*1144 FILLER_19_122
*1145 FILLER_19_131
*1146 FILLER_19_139
*1147 FILLER_19_151
*1148 FILLER_19_157
*1149 FILLER_19_166
*1150 FILLER_19_169
*1151 FILLER_19_181
*1152 FILLER_19_193
*1153 FILLER_19_197
*1154 FILLER_19_204
*1155 FILLER_19_216
*1156 FILLER_19_225
*1157 FILLER_19_237
*1158 FILLER_19_249
*1159 FILLER_19_261
*1160 FILLER_19_273
*1161 FILLER_19_279
*1162 FILLER_19_281
*1163 FILLER_19_293
*1164 FILLER_19_3
*1165 FILLER_19_34
*1166 FILLER_19_43
*1167 FILLER_19_51
*1168 FILLER_19_55
*1169 FILLER_19_57
*1170 FILLER_19_65
*1171 FILLER_19_69
*1172 FILLER_19_77
*1173 FILLER_19_85
*1174 FILLER_19_94
*1175 FILLER_1_102
*1176 FILLER_1_110
*1177 FILLER_1_113
*1178 FILLER_1_137
*1179 FILLER_1_15
*1180 FILLER_1_163
*1181 FILLER_1_167
*1182 FILLER_1_169
*1183 FILLER_1_180
*1184 FILLER_1_191
*1185 FILLER_1_197
*1186 FILLER_1_211
*1187 FILLER_1_221
*1188 FILLER_1_225
*1189 FILLER_1_233
*1190 FILLER_1_245
*1191 FILLER_1_257
*1192 FILLER_1_269
*1193 FILLER_1_27
*1194 FILLER_1_277
*1195 FILLER_1_281
*1196 FILLER_1_293
*1197 FILLER_1_3
*1198 FILLER_1_39
*1199 FILLER_1_51
*1200 FILLER_1_55
*1201 FILLER_1_57
*1202 FILLER_1_69
*1203 FILLER_1_81
*1204 FILLER_1_85
*1205 FILLER_1_90
*1206 FILLER_1_98
*1207 FILLER_20_101
*1208 FILLER_20_108
*1209 FILLER_20_116
*1210 FILLER_20_124
*1211 FILLER_20_131
*1212 FILLER_20_139
*1213 FILLER_20_141
*1214 FILLER_20_151
*1215 FILLER_20_161
*1216 FILLER_20_173
*1217 FILLER_20_179
*1218 FILLER_20_183
*1219 FILLER_20_195
*1220 FILLER_20_197
*1221 FILLER_20_204
*1222 FILLER_20_21
*1223 FILLER_20_212
*1224 FILLER_20_221
*1225 FILLER_20_234
*1226 FILLER_20_240
*1227 FILLER_20_246
*1228 FILLER_20_253
*1229 FILLER_20_265
*1230 FILLER_20_27
*1231 FILLER_20_277
*1232 FILLER_20_289
*1233 FILLER_20_29
*1234 FILLER_20_297
*1235 FILLER_20_3
*1236 FILLER_20_34
*1237 FILLER_20_46
*1238 FILLER_20_56
*1239 FILLER_20_63
*1240 FILLER_20_75
*1241 FILLER_20_83
*1242 FILLER_20_85
*1243 FILLER_20_95
*1244 FILLER_21_100
*1245 FILLER_21_108
*1246 FILLER_21_113
*1247 FILLER_21_121
*1248 FILLER_21_133
*1249 FILLER_21_141
*1250 FILLER_21_149
*1251 FILLER_21_166
*1252 FILLER_21_169
*1253 FILLER_21_175
*1254 FILLER_21_183
*1255 FILLER_21_194
*1256 FILLER_21_204
*1257 FILLER_21_216
*1258 FILLER_21_225
*1259 FILLER_21_232
*1260 FILLER_21_240
*1261 FILLER_21_247
*1262 FILLER_21_259
*1263 FILLER_21_271
*1264 FILLER_21_279
*1265 FILLER_21_281
*1266 FILLER_21_29
*1267 FILLER_21_293
*1268 FILLER_21_3
*1269 FILLER_21_38
*1270 FILLER_21_50
*1271 FILLER_21_57
*1272 FILLER_21_67
*1273 FILLER_21_71
*1274 FILLER_21_78
*1275 FILLER_21_9
*1276 FILLER_21_90
*1277 FILLER_22_101
*1278 FILLER_22_107
*1279 FILLER_22_113
*1280 FILLER_22_123
*1281 FILLER_22_129
*1282 FILLER_22_137
*1283 FILLER_22_141
*1284 FILLER_22_148
*1285 FILLER_22_160
*1286 FILLER_22_167
*1287 FILLER_22_179
*1288 FILLER_22_194
*1289 FILLER_22_197
*1290 FILLER_22_206
*1291 FILLER_22_218
*1292 FILLER_22_230
*1293 FILLER_22_242
*1294 FILLER_22_25
*1295 FILLER_22_250
*1296 FILLER_22_253
*1297 FILLER_22_265
*1298 FILLER_22_277
*1299 FILLER_22_289
*1300 FILLER_22_29
*1301 FILLER_22_297
*1302 FILLER_22_3
*1303 FILLER_22_39
*1304 FILLER_22_49
*1305 FILLER_22_57
*1306 FILLER_22_61
*1307 FILLER_22_69
*1308 FILLER_22_73
*1309 FILLER_22_82
*1310 FILLER_22_85
*1311 FILLER_22_97
*1312 FILLER_23_108
*1313 FILLER_23_113
*1314 FILLER_23_12
*1315 FILLER_23_121
*1316 FILLER_23_132
*1317 FILLER_23_144
*1318 FILLER_23_152
*1319 FILLER_23_156
*1320 FILLER_23_166
*1321 FILLER_23_169
*1322 FILLER_23_177
*1323 FILLER_23_186
*1324 FILLER_23_201
*1325 FILLER_23_209
*1326 FILLER_23_221
*1327 FILLER_23_225
*1328 FILLER_23_235
*1329 FILLER_23_245
*1330 FILLER_23_257
*1331 FILLER_23_26
*1332 FILLER_23_269
*1333 FILLER_23_277
*1334 FILLER_23_281
*1335 FILLER_23_293
*1336 FILLER_23_3
*1337 FILLER_23_33
*1338 FILLER_23_45
*1339 FILLER_23_53
*1340 FILLER_23_57
*1341 FILLER_23_69
*1342 FILLER_23_84
*1343 FILLER_23_90
*1344 FILLER_23_96
*1345 FILLER_24_104
*1346 FILLER_24_116
*1347 FILLER_24_131
*1348 FILLER_24_139
*1349 FILLER_24_141
*1350 FILLER_24_150
*1351 FILLER_24_161
*1352 FILLER_24_175
*1353 FILLER_24_187
*1354 FILLER_24_193
*1355 FILLER_24_197
*1356 FILLER_24_201
*1357 FILLER_24_208
*1358 FILLER_24_22
*1359 FILLER_24_233
*1360 FILLER_24_245
*1361 FILLER_24_251
*1362 FILLER_24_253
*1363 FILLER_24_265
*1364 FILLER_24_277
*1365 FILLER_24_289
*1366 FILLER_24_29
*1367 FILLER_24_297
*1368 FILLER_24_3
*1369 FILLER_24_38
*1370 FILLER_24_47
*1371 FILLER_24_62
*1372 FILLER_24_68
*1373 FILLER_24_75
*1374 FILLER_24_83
*1375 FILLER_24_85
*1376 FILLER_24_96
*1377 FILLER_25_100
*1378 FILLER_25_110
*1379 FILLER_25_113
*1380 FILLER_25_127
*1381 FILLER_25_13
*1382 FILLER_25_135
*1383 FILLER_25_145
*1384 FILLER_25_153
*1385 FILLER_25_162
*1386 FILLER_25_169
*1387 FILLER_25_177
*1388 FILLER_25_186
*1389 FILLER_25_195
*1390 FILLER_25_206
*1391 FILLER_25_218
*1392 FILLER_25_225
*1393 FILLER_25_231
*1394 FILLER_25_249
*1395 FILLER_25_261
*1396 FILLER_25_273
*1397 FILLER_25_279
*1398 FILLER_25_281
*1399 FILLER_25_293
*1400 FILLER_25_3
*1401 FILLER_25_34
*1402 FILLER_25_38
*1403 FILLER_25_45
*1404 FILLER_25_53
*1405 FILLER_25_57
*1406 FILLER_25_63
*1407 FILLER_25_7
*1408 FILLER_25_72
*1409 FILLER_25_83
*1410 FILLER_25_92
*1411 FILLER_26_102
*1412 FILLER_26_113
*1413 FILLER_26_129
*1414 FILLER_26_137
*1415 FILLER_26_141
*1416 FILLER_26_162
*1417 FILLER_26_166
*1418 FILLER_26_172
*1419 FILLER_26_181
*1420 FILLER_26_193
*1421 FILLER_26_197
*1422 FILLER_26_208
*1423 FILLER_26_21
*1424 FILLER_26_220
*1425 FILLER_26_228
*1426 FILLER_26_237
*1427 FILLER_26_249
*1428 FILLER_26_253
*1429 FILLER_26_265
*1430 FILLER_26_27
*1431 FILLER_26_277
*1432 FILLER_26_289
*1433 FILLER_26_29
*1434 FILLER_26_297
*1435 FILLER_26_3
*1436 FILLER_26_38
*1437 FILLER_26_65
*1438 FILLER_26_76
*1439 FILLER_26_85
*1440 FILLER_26_90
*1441 FILLER_27_100
*1442 FILLER_27_107
*1443 FILLER_27_111
*1444 FILLER_27_113
*1445 FILLER_27_121
*1446 FILLER_27_133
*1447 FILLER_27_145
*1448 FILLER_27_149
*1449 FILLER_27_155
*1450 FILLER_27_164
*1451 FILLER_27_169
*1452 FILLER_27_18
*1453 FILLER_27_181
*1454 FILLER_27_188
*1455 FILLER_27_202
*1456 FILLER_27_213
*1457 FILLER_27_222
*1458 FILLER_27_225
*1459 FILLER_27_233
*1460 FILLER_27_242
*1461 FILLER_27_254
*1462 FILLER_27_26
*1463 FILLER_27_266
*1464 FILLER_27_278
*1465 FILLER_27_281
*1466 FILLER_27_293
*1467 FILLER_27_3
*1468 FILLER_27_30
*1469 FILLER_27_40
*1470 FILLER_27_47
*1471 FILLER_27_55
*1472 FILLER_27_57
*1473 FILLER_27_67
*1474 FILLER_27_76
*1475 FILLER_27_89
*1476 FILLER_27_9
*1477 FILLER_28_102
*1478 FILLER_28_111
*1479 FILLER_28_122
*1480 FILLER_28_128
*1481 FILLER_28_136
*1482 FILLER_28_141
*1483 FILLER_28_151
*1484 FILLER_28_159
*1485 FILLER_28_166
*1486 FILLER_28_173
*1487 FILLER_28_18
*1488 FILLER_28_189
*1489 FILLER_28_195
*1490 FILLER_28_197
*1491 FILLER_28_205
*1492 FILLER_28_216
*1493 FILLER_28_236
*1494 FILLER_28_246
*1495 FILLER_28_253
*1496 FILLER_28_26
*1497 FILLER_28_265
*1498 FILLER_28_277
*1499 FILLER_28_289
*1500 FILLER_28_29
*1501 FILLER_28_297
*1502 FILLER_28_3
*1503 FILLER_28_37
*1504 FILLER_28_41
*1505 FILLER_28_49
*1506 FILLER_28_58
*1507 FILLER_28_71
*1508 FILLER_28_75
*1509 FILLER_28_82
*1510 FILLER_28_85
*1511 FILLER_28_9
*1512 FILLER_28_94
*1513 FILLER_28_98
*1514 FILLER_29_110
*1515 FILLER_29_113
*1516 FILLER_29_121
*1517 FILLER_29_129
*1518 FILLER_29_137
*1519 FILLER_29_149
*1520 FILLER_29_153
*1521 FILLER_29_157
*1522 FILLER_29_166
*1523 FILLER_29_169
*1524 FILLER_29_174
*1525 FILLER_29_178
*1526 FILLER_29_182
*1527 FILLER_29_194
*1528 FILLER_29_202
*1529 FILLER_29_21
*1530 FILLER_29_212
*1531 FILLER_29_225
*1532 FILLER_29_242
*1533 FILLER_29_252
*1534 FILLER_29_264
*1535 FILLER_29_276
*1536 FILLER_29_281
*1537 FILLER_29_29
*1538 FILLER_29_293
*1539 FILLER_29_3
*1540 FILLER_29_33
*1541 FILLER_29_42
*1542 FILLER_29_46
*1543 FILLER_29_54
*1544 FILLER_29_57
*1545 FILLER_29_68
*1546 FILLER_29_72
*1547 FILLER_29_78
*1548 FILLER_29_87
*1549 FILLER_29_98
*1550 FILLER_2_101
*1551 FILLER_2_109
*1552 FILLER_2_118
*1553 FILLER_2_126
*1554 FILLER_2_138
*1555 FILLER_2_141
*1556 FILLER_2_147
*1557 FILLER_2_15
*1558 FILLER_2_157
*1559 FILLER_2_183
*1560 FILLER_2_193
*1561 FILLER_2_197
*1562 FILLER_2_212
*1563 FILLER_2_222
*1564 FILLER_2_232
*1565 FILLER_2_244
*1566 FILLER_2_253
*1567 FILLER_2_265
*1568 FILLER_2_27
*1569 FILLER_2_277
*1570 FILLER_2_289
*1571 FILLER_2_29
*1572 FILLER_2_297
*1573 FILLER_2_3
*1574 FILLER_2_41
*1575 FILLER_2_53
*1576 FILLER_2_65
*1577 FILLER_2_69
*1578 FILLER_2_79
*1579 FILLER_2_83
*1580 FILLER_2_85
*1581 FILLER_2_93
*1582 FILLER_30_109
*1583 FILLER_30_120
*1584 FILLER_30_129
*1585 FILLER_30_137
*1586 FILLER_30_141
*1587 FILLER_30_145
*1588 FILLER_30_153
*1589 FILLER_30_165
*1590 FILLER_30_177
*1591 FILLER_30_185
*1592 FILLER_30_193
*1593 FILLER_30_197
*1594 FILLER_30_204
*1595 FILLER_30_216
*1596 FILLER_30_22
*1597 FILLER_30_227
*1598 FILLER_30_239
*1599 FILLER_30_251
*1600 FILLER_30_253
*1601 FILLER_30_265
*1602 FILLER_30_277
*1603 FILLER_30_289
*1604 FILLER_30_29
*1605 FILLER_30_297
*1606 FILLER_30_3
*1607 FILLER_30_39
*1608 FILLER_30_47
*1609 FILLER_30_59
*1610 FILLER_30_68
*1611 FILLER_30_80
*1612 FILLER_30_85
*1613 FILLER_30_99
*1614 FILLER_31_100
*1615 FILLER_31_113
*1616 FILLER_31_124
*1617 FILLER_31_137
*1618 FILLER_31_157
*1619 FILLER_31_16
*1620 FILLER_31_165
*1621 FILLER_31_169
*1622 FILLER_31_177
*1623 FILLER_31_188
*1624 FILLER_31_197
*1625 FILLER_31_205
*1626 FILLER_31_217
*1627 FILLER_31_223
*1628 FILLER_31_225
*1629 FILLER_31_237
*1630 FILLER_31_247
*1631 FILLER_31_259
*1632 FILLER_31_271
*1633 FILLER_31_279
*1634 FILLER_31_281
*1635 FILLER_31_293
*1636 FILLER_31_3
*1637 FILLER_31_37
*1638 FILLER_31_50
*1639 FILLER_31_57
*1640 FILLER_31_66
*1641 FILLER_31_78
*1642 FILLER_31_90
*1643 FILLER_32_112
*1644 FILLER_32_124
*1645 FILLER_32_130
*1646 FILLER_32_138
*1647 FILLER_32_141
*1648 FILLER_32_156
*1649 FILLER_32_162
*1650 FILLER_32_171
*1651 FILLER_32_182
*1652 FILLER_32_193
*1653 FILLER_32_197
*1654 FILLER_32_201
*1655 FILLER_32_21
*1656 FILLER_32_210
*1657 FILLER_32_218
*1658 FILLER_32_227
*1659 FILLER_32_235
*1660 FILLER_32_244
*1661 FILLER_32_253
*1662 FILLER_32_265
*1663 FILLER_32_27
*1664 FILLER_32_277
*1665 FILLER_32_289
*1666 FILLER_32_29
*1667 FILLER_32_297
*1668 FILLER_32_3
*1669 FILLER_32_33
*1670 FILLER_32_42
*1671 FILLER_32_54
*1672 FILLER_32_58
*1673 FILLER_32_67
*1674 FILLER_32_73
*1675 FILLER_32_82
*1676 FILLER_32_85
*1677 FILLER_32_96
*1678 FILLER_33_100
*1679 FILLER_33_110
*1680 FILLER_33_113
*1681 FILLER_33_122
*1682 FILLER_33_132
*1683 FILLER_33_144
*1684 FILLER_33_155
*1685 FILLER_33_167
*1686 FILLER_33_169
*1687 FILLER_33_179
*1688 FILLER_33_18
*1689 FILLER_33_191
*1690 FILLER_33_199
*1691 FILLER_33_206
*1692 FILLER_33_218
*1693 FILLER_33_225
*1694 FILLER_33_237
*1695 FILLER_33_244
*1696 FILLER_33_256
*1697 FILLER_33_268
*1698 FILLER_33_281
*1699 FILLER_33_293
*1700 FILLER_33_3
*1701 FILLER_33_32
*1702 FILLER_33_44
*1703 FILLER_33_53
*1704 FILLER_33_57
*1705 FILLER_33_67
*1706 FILLER_33_78
*1707 FILLER_33_9
*1708 FILLER_33_90
*1709 FILLER_34_104
*1710 FILLER_34_112
*1711 FILLER_34_116
*1712 FILLER_34_12
*1713 FILLER_34_124
*1714 FILLER_34_136
*1715 FILLER_34_141
*1716 FILLER_34_154
*1717 FILLER_34_165
*1718 FILLER_34_178
*1719 FILLER_34_185
*1720 FILLER_34_192
*1721 FILLER_34_197
*1722 FILLER_34_209
*1723 FILLER_34_21
*1724 FILLER_34_215
*1725 FILLER_34_222
*1726 FILLER_34_229
*1727 FILLER_34_241
*1728 FILLER_34_249
*1729 FILLER_34_253
*1730 FILLER_34_265
*1731 FILLER_34_27
*1732 FILLER_34_277
*1733 FILLER_34_289
*1734 FILLER_34_29
*1735 FILLER_34_297
*1736 FILLER_34_3
*1737 FILLER_34_36
*1738 FILLER_34_44
*1739 FILLER_34_51
*1740 FILLER_34_65
*1741 FILLER_34_73
*1742 FILLER_34_80
*1743 FILLER_34_85
*1744 FILLER_34_96
*1745 FILLER_35_110
*1746 FILLER_35_113
*1747 FILLER_35_12
*1748 FILLER_35_121
*1749 FILLER_35_133
*1750 FILLER_35_143
*1751 FILLER_35_149
*1752 FILLER_35_156
*1753 FILLER_35_169
*1754 FILLER_35_177
*1755 FILLER_35_188
*1756 FILLER_35_199
*1757 FILLER_35_21
*1758 FILLER_35_211
*1759 FILLER_35_223
*1760 FILLER_35_225
*1761 FILLER_35_234
*1762 FILLER_35_242
*1763 FILLER_35_254
*1764 FILLER_35_266
*1765 FILLER_35_27
*1766 FILLER_35_278
*1767 FILLER_35_281
*1768 FILLER_35_293
*1769 FILLER_35_3
*1770 FILLER_35_34
*1771 FILLER_35_45
*1772 FILLER_35_53
*1773 FILLER_35_57
*1774 FILLER_35_67
*1775 FILLER_35_79
*1776 FILLER_35_91
*1777 FILLER_35_99
*1778 FILLER_36_107
*1779 FILLER_36_115
*1780 FILLER_36_122
*1781 FILLER_36_128
*1782 FILLER_36_138
*1783 FILLER_36_141
*1784 FILLER_36_151
*1785 FILLER_36_162
*1786 FILLER_36_166
*1787 FILLER_36_172
*1788 FILLER_36_178
*1789 FILLER_36_186
*1790 FILLER_36_19
*1791 FILLER_36_194
*1792 FILLER_36_197
*1793 FILLER_36_208
*1794 FILLER_36_220
*1795 FILLER_36_232
*1796 FILLER_36_243
*1797 FILLER_36_250
*1798 FILLER_36_253
*1799 FILLER_36_26
*1800 FILLER_36_265
*1801 FILLER_36_277
*1802 FILLER_36_289
*1803 FILLER_36_29
*1804 FILLER_36_297
*1805 FILLER_36_3
*1806 FILLER_36_34
*1807 FILLER_36_47
*1808 FILLER_36_62
*1809 FILLER_36_70
*1810 FILLER_36_79
*1811 FILLER_36_83
*1812 FILLER_36_85
*1813 FILLER_36_96
*1814 FILLER_37_104
*1815 FILLER_37_113
*1816 FILLER_37_123
*1817 FILLER_37_13
*1818 FILLER_37_135
*1819 FILLER_37_147
*1820 FILLER_37_155
*1821 FILLER_37_161
*1822 FILLER_37_167
*1823 FILLER_37_169
*1824 FILLER_37_184
*1825 FILLER_37_197
*1826 FILLER_37_206
*1827 FILLER_37_212
*1828 FILLER_37_222
*1829 FILLER_37_225
*1830 FILLER_37_233
*1831 FILLER_37_24