*SPEF "ieee 1481-1999"
*DESIGN "jblocklove_cgpt_benchmark_wrapper"
*DATE "11:11:11 Fri 11 11, 1111"
*VENDOR "OpenRCX"
*PROGRAM "Parallel Extraction"
*VERSION "1.0"
*DESIGN_FLOW "NAME_SCOPE LOCAL" "PIN_CAP NONE"
*DIVIDER /
*DELIMITER :
*BUS_DELIMITER []
*T_UNIT 1 NS
*C_UNIT 1 PF
*R_UNIT 1 OHM
*L_UNIT 1 HENRY

*NAME_MAP
*1 io_in[0]
*2 io_in[1]
*3 io_in[2]
*4 io_in[3]
*5 io_in[4]
*6 io_in[5]
*7 io_in[6]
*8 io_in[7]
*9 io_out[0]
*10 io_out[1]
*11 io_out[2]
*12 io_out[3]
*13 io_out[4]
*14 io_out[5]
*15 io_out[6]
*16 io_out[7]
*19 _000_
*20 _001_
*21 _002_
*22 _003_
*23 _004_
*24 _005_
*25 _006_
*26 _007_
*27 _008_
*28 _009_
*29 _010_
*30 _011_
*31 _012_
*32 _013_
*33 _014_
*34 _015_
*35 _016_
*36 _017_
*37 _018_
*38 _019_
*39 _020_
*40 _021_
*41 _022_
*42 _023_
*43 _024_
*44 _025_
*45 _026_
*46 _027_
*47 _028_
*48 _029_
*49 _030_
*50 _031_
*51 _032_
*52 _033_
*53 _034_
*54 _035_
*55 _036_
*56 _037_
*57 _038_
*58 _039_
*59 _040_
*60 _041_
*61 _042_
*62 _043_
*63 _044_
*64 _045_
*65 _046_
*66 _047_
*67 _048_
*68 _049_
*69 _050_
*70 _051_
*71 _052_
*72 _053_
*73 _054_
*74 _055_
*75 _056_
*76 _057_
*77 _058_
*78 _059_
*79 _060_
*80 _061_
*81 _062_
*82 _063_
*83 _064_
*84 _065_
*85 _066_
*86 _067_
*87 _068_
*88 _069_
*89 _070_
*90 _071_
*91 _072_
*92 _073_
*93 _074_
*94 _075_
*95 _076_
*96 _077_
*97 _078_
*98 _079_
*99 _080_
*100 _081_
*101 _082_
*102 _083_
*103 _084_
*104 _085_
*105 _086_
*106 _087_
*107 _088_
*108 _089_
*109 _090_
*110 _091_
*111 _092_
*112 _093_
*113 _094_
*114 _095_
*115 _096_
*116 _097_
*117 _098_
*118 _099_
*119 _100_
*120 _101_
*121 _102_
*122 _103_
*123 _104_
*124 _105_
*125 _106_
*126 _107_
*127 _108_
*128 _109_
*129 _110_
*130 _111_
*131 _112_
*132 _113_
*133 _114_
*134 _115_
*135 _116_
*136 _117_
*137 _118_
*138 _119_
*139 _120_
*140 _121_
*141 _122_
*142 _123_
*143 _124_
*144 _125_
*145 _126_
*146 _127_
*147 _128_
*148 _129_
*149 _130_
*150 _131_
*151 _132_
*152 _133_
*153 _134_
*154 _135_
*155 _136_
*156 _137_
*157 _138_
*158 _139_
*159 _140_
*160 _141_
*161 _142_
*162 _143_
*163 _144_
*164 _145_
*165 _146_
*166 _147_
*167 _148_
*168 _149_
*169 _150_
*170 _151_
*171 _152_
*172 _153_
*173 _154_
*174 _155_
*175 _156_
*176 _157_
*177 _158_
*178 _159_
*179 _160_
*180 _161_
*181 _162_
*182 _163_
*183 _164_
*184 _165_
*185 _166_
*186 _167_
*187 _168_
*188 _169_
*189 _170_
*190 _171_
*191 _172_
*192 _173_
*193 _174_
*194 abro_sm\.state\[0\]
*195 abro_sm\.state\[1\]
*196 abro_sm\.state\[2\]
*197 abro_sm\.state\[3\]
*198 clknet_0_io_in[0]
*199 clknet_2_0__leaf_io_in[0]
*200 clknet_2_1__leaf_io_in[0]
*201 clknet_2_2__leaf_io_in[0]
*202 clknet_2_3__leaf_io_in[0]
*203 dice_inst\.lfsr_state\[0\]
*204 dice_inst\.roll_done
*205 dice_inst\.rolled_number\[0\]
*206 dice_inst\.rolled_number\[1\]
*207 lfsr_inst\.data\[0\]
*208 lfsr_inst\.data\[1\]
*209 lfsr_inst\.data\[2\]
*210 lfsr_inst\.data\[3\]
*211 lfsr_inst\.data\[4\]
*212 lfsr_inst\.data\[5\]
*213 lfsr_inst\.data\[6\]
*214 lfsr_inst\.data\[7\]
*215 lfsr_inst\.feedback
*216 net1
*217 net10
*218 net11
*219 net12
*220 net13
*221 net14
*222 net2
*223 net3
*224 net4
*225 net5
*226 net6
*227 net7
*228 net8
*229 net9
*230 seq_det\.sequence_found
*231 seq_det\.state\[0\]
*232 seq_det\.state\[1\]
*233 seq_det\.state\[2\]
*234 seq_det\.state\[3\]
*235 seq_det\.state\[4\]
*236 seq_det\.state\[5\]
*237 seq_det\.state\[6\]
*238 seq_det\.state\[7\]
*239 seq_gen\.state\[0\]
*240 seq_gen\.state\[1\]
*241 seq_gen\.state\[2\]
*242 shift_reg\.data_out\[0\]
*243 shift_reg\.data_out\[1\]
*244 shift_reg\.data_out\[2\]
*245 shift_reg\.data_out\[3\]
*246 shift_reg\.data_out\[4\]
*247 shift_reg\.data_out\[5\]
*248 shift_reg\.data_out\[6\]
*249 shift_reg\.data_out\[7\]
*250 traffic_inst\.counter\[0\]
*251 traffic_inst\.counter\[1\]
*252 traffic_inst\.counter\[2\]
*253 traffic_inst\.counter\[3\]
*254 traffic_inst\.counter\[4\]
*255 traffic_inst\.counter\[5\]
*256 traffic_inst\.current_state\[0\]
*257 traffic_inst\.current_state\[1\]
*258 ANTENNA_1
*259 ANTENNA_2
*260 ANTENNA_3
*261 ANTENNA_4
*262 FILLER_0_109
*263 FILLER_0_113
*264 FILLER_0_125
*265 FILLER_0_137
*266 FILLER_0_141
*267 FILLER_0_153
*268 FILLER_0_165
*269 FILLER_0_169
*270 FILLER_0_181
*271 FILLER_0_193
*272 FILLER_0_197
*273 FILLER_0_209
*274 FILLER_0_221
*275 FILLER_0_225
*276 FILLER_0_237
*277 FILLER_0_249
*278 FILLER_0_253
*279 FILLER_0_26
*280 FILLER_0_265
*281 FILLER_0_277
*282 FILLER_0_281
*283 FILLER_0_29
*284 FILLER_0_293
*285 FILLER_0_3
*286 FILLER_0_33
*287 FILLER_0_54
*288 FILLER_0_57
*289 FILLER_0_65
*290 FILLER_0_73
*291 FILLER_0_81
*292 FILLER_0_85
*293 FILLER_0_97
*294 FILLER_10_105
*295 FILLER_10_117
*296 FILLER_10_129
*297 FILLER_10_137
*298 FILLER_10_141
*299 FILLER_10_153
*300 FILLER_10_165
*301 FILLER_10_177
*302 FILLER_10_189
*303 FILLER_10_195
*304 FILLER_10_197
*305 FILLER_10_209
*306 FILLER_10_221
*307 FILLER_10_233
*308 FILLER_10_245
*309 FILLER_10_251
*310 FILLER_10_253
*311 FILLER_10_26
*312 FILLER_10_265
*313 FILLER_10_277
*314 FILLER_10_289
*315 FILLER_10_29
*316 FILLER_10_297
*317 FILLER_10_3
*318 FILLER_10_41
*319 FILLER_10_53
*320 FILLER_10_65
*321 FILLER_10_77
*322 FILLER_10_83
*323 FILLER_10_85
*324 FILLER_11_101
*325 FILLER_11_106
*326 FILLER_11_113
*327 FILLER_11_125
*328 FILLER_11_137
*329 FILLER_11_149
*330 FILLER_11_161
*331 FILLER_11_167
*332 FILLER_11_169
*333 FILLER_11_181
*334 FILLER_11_193
*335 FILLER_11_205
*336 FILLER_11_217
*337 FILLER_11_223
*338 FILLER_11_225
*339 FILLER_11_237
*340 FILLER_11_249
*341 FILLER_11_261
*342 FILLER_11_273
*343 FILLER_11_279
*344 FILLER_11_281
*345 FILLER_11_293
*346 FILLER_11_3
*347 FILLER_11_31
*348 FILLER_11_45
*349 FILLER_11_53
*350 FILLER_11_57
*351 FILLER_11_69
*352 FILLER_11_7
*353 FILLER_11_81
*354 FILLER_11_93
*355 FILLER_12_109
*356 FILLER_12_121
*357 FILLER_12_133
*358 FILLER_12_139
*359 FILLER_12_141
*360 FILLER_12_153
*361 FILLER_12_165
*362 FILLER_12_177
*363 FILLER_12_189
*364 FILLER_12_195
*365 FILLER_12_197
*366 FILLER_12_209
*367 FILLER_12_221
*368 FILLER_12_233
*369 FILLER_12_245
*370 FILLER_12_25
*371 FILLER_12_251
*372 FILLER_12_253
*373 FILLER_12_265
*374 FILLER_12_277
*375 FILLER_12_289
*376 FILLER_12_29
*377 FILLER_12_297
*378 FILLER_12_3
*379 FILLER_12_34
*380 FILLER_12_38
*381 FILLER_12_60
*382 FILLER_12_72
*383 FILLER_12_85
*384 FILLER_12_97
*385 FILLER_13_105
*386 FILLER_13_111
*387 FILLER_13_113
*388 FILLER_13_125
*389 FILLER_13_137
*390 FILLER_13_149
*391 FILLER_13_161
*392 FILLER_13_167
*393 FILLER_13_169
*394 FILLER_13_181
*395 FILLER_13_193
*396 FILLER_13_205
*397 FILLER_13_217
*398 FILLER_13_223
*399 FILLER_13_225
*400 FILLER_13_237
*401 FILLER_13_249
*402 FILLER_13_261
*403 FILLER_13_273
*404 FILLER_13_279
*405 FILLER_13_28
*406 FILLER_13_281
*407 FILLER_13_293
*408 FILLER_13_3
*409 FILLER_13_54
*410 FILLER_13_57
*411 FILLER_13_69
*412 FILLER_13_81
*413 FILLER_13_93
*414 FILLER_14_109
*415 FILLER_14_121
*416 FILLER_14_133
*417 FILLER_14_139
*418 FILLER_14_141
*419 FILLER_14_153
*420 FILLER_14_165
*421 FILLER_14_177
*422 FILLER_14_189
*423 FILLER_14_195
*424 FILLER_14_197
*425 FILLER_14_209
*426 FILLER_14_221
*427 FILLER_14_233
*428 FILLER_14_245
*429 FILLER_14_25
*430 FILLER_14_251
*431 FILLER_14_253
*432 FILLER_14_265
*433 FILLER_14_277
*434 FILLER_14_289
*435 FILLER_14_29
*436 FILLER_14_297
*437 FILLER_14_3
*438 FILLER_14_36
*439 FILLER_14_60
*440 FILLER_14_72
*441 FILLER_14_85
*442 FILLER_14_97
*443 FILLER_15_110
*444 FILLER_15_113
*445 FILLER_15_125
*446 FILLER_15_137
*447 FILLER_15_149
*448 FILLER_15_161
*449 FILLER_15_167
*450 FILLER_15_169
*451 FILLER_15_181
*452 FILLER_15_193
*453 FILLER_15_205
*454 FILLER_15_217
*455 FILLER_15_223
*456 FILLER_15_225
*457 FILLER_15_237
*458 FILLER_15_249
*459 FILLER_15_261
*460 FILLER_15_273
*461 FILLER_15_279
*462 FILLER_15_281
*463 FILLER_15_29
*464 FILLER_15_293
*465 FILLER_15_3
*466 FILLER_15_33
*467 FILLER_15_54
*468 FILLER_15_57
*469 FILLER_15_69
*470 FILLER_15_77
*471 FILLER_15_82
*472 FILLER_15_86
*473 FILLER_15_96
*474 FILLER_16_109
*475 FILLER_16_121
*476 FILLER_16_133
*477 FILLER_16_139
*478 FILLER_16_141
*479 FILLER_16_153
*480 FILLER_16_165
*481 FILLER_16_177
*482 FILLER_16_189
*483 FILLER_16_195
*484 FILLER_16_197
*485 FILLER_16_209
*486 FILLER_16_221
*487 FILLER_16_233
*488 FILLER_16_245
*489 FILLER_16_251
*490 FILLER_16_253
*491 FILLER_16_26
*492 FILLER_16_265
*493 FILLER_16_277
*494 FILLER_16_289
*495 FILLER_16_29
*496 FILLER_16_297
*497 FILLER_16_3
*498 FILLER_16_34
*499 FILLER_16_60
*500 FILLER_16_72
*501 FILLER_16_85
*502 FILLER_16_97
*503 FILLER_17_101
*504 FILLER_17_110
*505 FILLER_17_113
*506 FILLER_17_125
*507 FILLER_17_137
*508 FILLER_17_149
*509 FILLER_17_161
*510 FILLER_17_167
*511 FILLER_17_169
*512 FILLER_17_17
*513 FILLER_17_181
*514 FILLER_17_193
*515 FILLER_17_205
*516 FILLER_17_217
*517 FILLER_17_223
*518 FILLER_17_225
*519 FILLER_17_237
*520 FILLER_17_249
*521 FILLER_17_261
*522 FILLER_17_273
*523 FILLER_17_279
*524 FILLER_17_281
*525 FILLER_17_293
*526 FILLER_17_3
*527 FILLER_17_42
*528 FILLER_17_54
*529 FILLER_17_57
*530 FILLER_17_69
*531 FILLER_17_81
*532 FILLER_17_93
*533 FILLER_18_103
*534 FILLER_18_115
*535 FILLER_18_127
*536 FILLER_18_139
*537 FILLER_18_141
*538 FILLER_18_153
*539 FILLER_18_165
*540 FILLER_18_177
*541 FILLER_18_189
*542 FILLER_18_195
*543 FILLER_18_197
*544 FILLER_18_209
*545 FILLER_18_221
*546 FILLER_18_233
*547 FILLER_18_245
*548 FILLER_18_251
*549 FILLER_18_253
*550 FILLER_18_26
*551 FILLER_18_265
*552 FILLER_18_277
*553 FILLER_18_289
*554 FILLER_18_29
*555 FILLER_18_297
*556 FILLER_18_3
*557 FILLER_18_37
*558 FILLER_18_60
*559 FILLER_18_72
*560 FILLER_18_85
*561 FILLER_18_91
*562 FILLER_19_104
*563 FILLER_19_113
*564 FILLER_19_12
*565 FILLER_19_125
*566 FILLER_19_137
*567 FILLER_19_149
*568 FILLER_19_161
*569 FILLER_19_167
*570 FILLER_19_169
*571 FILLER_19_181
*572 FILLER_19_193
*573 FILLER_19_20
*574 FILLER_19_205
*575 FILLER_19_217
*576 FILLER_19_223
*577 FILLER_19_225
*578 FILLER_19_237
*579 FILLER_19_24
*580 FILLER_19_249
*581 FILLER_19_261
*582 FILLER_19_273
*583 FILLER_19_279
*584 FILLER_19_281
*585 FILLER_19_293
*586 FILLER_19_3
*587 FILLER_19_46
*588 FILLER_19_54
*589 FILLER_19_57
*590 FILLER_19_69
*591 FILLER_19_81
*592 FILLER_19_90
*593 FILLER_1_104
*594 FILLER_1_113
*595 FILLER_1_125
*596 FILLER_1_137
*597 FILLER_1_149
*598 FILLER_1_161
*599 FILLER_1_167
*600 FILLER_1_169
*601 FILLER_1_181
*602 FILLER_1_193
*603 FILLER_1_205
*604 FILLER_1_217
*605 FILLER_1_223
*606 FILLER_1_225
*607 FILLER_1_237
*608 FILLER_1_249
*609 FILLER_1_26
*610 FILLER_1_261
*611 FILLER_1_273
*612 FILLER_1_279
*613 FILLER_1_281
*614 FILLER_1_293
*615 FILLER_1_30
*616 FILLER_1_53
*617 FILLER_1_57
*618 FILLER_1_80
*619 FILLER_1_92
*620 FILLER_20_106
*621 FILLER_20_118
*622 FILLER_20_130
*623 FILLER_20_138
*624 FILLER_20_141
*625 FILLER_20_153
*626 FILLER_20_165
*627 FILLER_20_177
*628 FILLER_20_189
*629 FILLER_20_195
*630 FILLER_20_197
*631 FILLER_20_209
*632 FILLER_20_221
*633 FILLER_20_233
*634 FILLER_20_245
*635 FILLER_20_25
*636 FILLER_20_251
*637 FILLER_20_253
*638 FILLER_20_265
*639 FILLER_20_277
*640 FILLER_20_289
*641 FILLER_20_29
*642 FILLER_20_297
*643 FILLER_20_3
*644 FILLER_20_35
*645 FILLER_20_62
*646 FILLER_20_74
*647 FILLER_20_82
*648 FILLER_20_85
*649 FILLER_20_94
*650 FILLER_21_110
*651 FILLER_21_113
*652 FILLER_21_117
*653 FILLER_21_12
*654 FILLER_21_125
*655 FILLER_21_137
*656 FILLER_21_149
*657 FILLER_21_161
*658 FILLER_21_167
*659 FILLER_21_169
*660 FILLER_21_181
*661 FILLER_21_193
*662 FILLER_21_205
*663 FILLER_21_217
*664 FILLER_21_223
*665 FILLER_21_225
*666 FILLER_21_237
*667 FILLER_21_249
*668 FILLER_21_261
*669 FILLER_21_273
*670 FILLER_21_279
*671 FILLER_21_281
*672 FILLER_21_293
*673 FILLER_21_3
*674 FILLER_21_36
*675 FILLER_21_48
*676 FILLER_21_57
*677 FILLER_21_69
*678 FILLER_21_81
*679 FILLER_21_89
*680 FILLER_21_98
*681 FILLER_22_104
*682 FILLER_22_116
*683 FILLER_22_128
*684 FILLER_22_141
*685 FILLER_22_153
*686 FILLER_22_165
*687 FILLER_22_177
*688 FILLER_22_189
*689 FILLER_22_195
*690 FILLER_22_197
*691 FILLER_22_209
*692 FILLER_22_21
*693 FILLER_22_221
*694 FILLER_22_233
*695 FILLER_22_245
*696 FILLER_22_251
*697 FILLER_22_253
*698 FILLER_22_265
*699 FILLER_22_27
*700 FILLER_22_277
*701 FILLER_22_289
*702 FILLER_22_29
*703 FILLER_22_297
*704 FILLER_22_3
*705 FILLER_22_52
*706 FILLER_22_64
*707 FILLER_22_76
*708 FILLER_22_85
*709 FILLER_22_9
*710 FILLER_22_94
*711 FILLER_23_107
*712 FILLER_23_11
*713 FILLER_23_111
*714 FILLER_23_113
*715 FILLER_23_125
*716 FILLER_23_137
*717 FILLER_23_149
*718 FILLER_23_161
*719 FILLER_23_167
*720 FILLER_23_169
*721 FILLER_23_181
*722 FILLER_23_193
*723 FILLER_23_205
*724 FILLER_23_217
*725 FILLER_23_223
*726 FILLER_23_225
*727 FILLER_23_237
*728 FILLER_23_249
*729 FILLER_23_261
*730 FILLER_23_273
*731 FILLER_23_279
*732 FILLER_23_281
*733 FILLER_23_293
*734 FILLER_23_3
*735 FILLER_23_39
*736 FILLER_23_51
*737 FILLER_23_55
*738 FILLER_23_57
*739 FILLER_23_69
*740 FILLER_23_77
*741 FILLER_23_83
*742 FILLER_23_95
*743 FILLER_24_109
*744 FILLER_24_12
*745 FILLER_24_121
*746 FILLER_24_127
*747 FILLER_24_132
*748 FILLER_24_141
*749 FILLER_24_153
*750 FILLER_24_165
*751 FILLER_24_177
*752 FILLER_24_189
*753 FILLER_24_195
*754 FILLER_24_197
*755 FILLER_24_209
*756 FILLER_24_22
*757 FILLER_24_221
*758 FILLER_24_233
*759 FILLER_24_245
*760 FILLER_24_251
*761 FILLER_24_253
*762 FILLER_24_265
*763 FILLER_24_277
*764 FILLER_24_289
*765 FILLER_24_29
*766 FILLER_24_297
*767 FILLER_24_3
*768 FILLER_24_41
*769 FILLER_24_53
*770 FILLER_24_65
*771 FILLER_24_82
*772 FILLER_24_85
*773 FILLER_24_97
*774 FILLER_25_105
*775 FILLER_25_111
*776 FILLER_25_113
*777 FILLER_25_125
*778 FILLER_25_13
*779 FILLER_25_137
*780 FILLER_25_154
*781 FILLER_25_166
*782 FILLER_25_169
*783 FILLER_25_181
*784 FILLER_25_193
*785 FILLER_25_205
*786 FILLER_25_217
*787 FILLER_25_223
*788 FILLER_25_225
*789 FILLER_25_237
*790 FILLER_25_249
*791 FILLER_25_25
*792 FILLER_25_261
*793 FILLER_25_273
*794 FILLER_25_279
*795 FILLER_25_281
*796 FILLER_25_293
*797 FILLER_25_3
*798 FILLER_25_47
*799 FILLER_25_55
*800 FILLER_25_57
*801 FILLER_25_69
*802 FILLER_25_81
*803 FILLER_25_93
*804 FILLER_26_107
*805 FILLER_26_112
*806 FILLER_26_124
*807 FILLER_26_136
*808 FILLER_26_141
*809 FILLER_26_153
*810 FILLER_26_165
*811 FILLER_26_177
*812 FILLER_26_189
*813 FILLER_26_195
*814 FILLER_26_197
*815 FILLER_26_209
*816 FILLER_26_221
*817 FILLER_26_233
*818 FILLER_26_245
*819 FILLER_26_251
*820 FILLER_26_253
*821 FILLER_26_26
*822 FILLER_26_265
*823 FILLER_26_277
*824 FILLER_26_289
*825 FILLER_26_29
*826 FILLER_26_297
*827 FILLER_26_3
*828 FILLER_26_52
*829 FILLER_26_64
*830 FILLER_26_76
*831 FILLER_26_85
*832 FILLER_26_95
*833 FILLER_27_104
*834 FILLER_27_113
*835 FILLER_27_128
*836 FILLER_27_140
*837 FILLER_27_152
*838 FILLER_27_164
*839 FILLER_27_169
*840 FILLER_27_181
*841 FILLER_27_193
*842 FILLER_27_205
*843 FILLER_27_217
*844 FILLER_27_223
*845 FILLER_27_225
*846 FILLER_27_237
*847 FILLER_27_249
*848 FILLER_27_26
*849 FILLER_27_261
*850 FILLER_27_273
*851 FILLER_27_279
*852 FILLER_27_281
*853 FILLER_27_293
*854 FILLER_27_3
*855 FILLER_27_33
*856 FILLER_27_45
*857 FILLER_27_53
*858 FILLER_27_57
*859 FILLER_27_69
*860 FILLER_27_77
*861 FILLER_27_82
*862 FILLER_27_96
*863 FILLER_28_106
*864 FILLER_28_113
*865 FILLER_28_121
*866 FILLER_28_132
*867 FILLER_28_14
*868 FILLER_28_141
*869 FILLER_28_150
*870 FILLER_28_162
*871 FILLER_28_174
*872 FILLER_28_186
*873 FILLER_28_194
*874 FILLER_28_197
*875 FILLER_28_209
*876 FILLER_28_22
*877 FILLER_28_221
*878 FILLER_28_233
*879 FILLER_28_245
*880 FILLER_28_251
*881 FILLER_28_253
*882 FILLER_28_265
*883 FILLER_28_277
*884 FILLER_28_289
*885 FILLER_28_29
*886 FILLER_28_297
*887 FILLER_28_3
*888 FILLER_28_61
*889 FILLER_28_73
*890 FILLER_28_82
*891 FILLER_28_85
*892 FILLER_28_92
*893 FILLER_28_96
*894 FILLER_29_103
*895 FILLER_29_110
*896 FILLER_29_113
*897 FILLER_29_120
*898 FILLER_29_132
*899 FILLER_29_144
*900 FILLER_29_161
*901 FILLER_29_167
*902 FILLER_29_169
*903 FILLER_29_181
*904 FILLER_29_193
*905 FILLER_29_199
*906 FILLER_29_211
*907 FILLER_29_223
*908 FILLER_29_225
*909 FILLER_29_237
*910 FILLER_29_249
*911 FILLER_29_261
*912 FILLER_29_273
*913 FILLER_29_279
*914 FILLER_29_281
*915 FILLER_29_293
*916 FILLER_29_3
*917 FILLER_29_30
*918 FILLER_29_54
*919 FILLER_29_57
*920 FILLER_29_69
*921 FILLER_29_77
*922 FILLER_29_83
*923 FILLER_29_9
*924 FILLER_29_95
*925 FILLER_2_109
*926 FILLER_2_121
*927 FILLER_2_133
*928 FILLER_2_139
*929 FILLER_2_141
*930 FILLER_2_153
*931 FILLER_2_165
*932 FILLER_2_177
*933 FILLER_2_189
*934 FILLER_2_195
*935 FILLER_2_197
*936 FILLER_2_209
*937 FILLER_2_221
*938 FILLER_2_233
*939 FILLER_2_245
*940 FILLER_2_251
*941 FILLER_2_253
*942 FILLER_2_26
*943 FILLER_2_265
*944 FILLER_2_277
*945 FILLER_2_289
*946 FILLER_2_29
*947 FILLER_2_297
*948 FILLER_2_3
*949 FILLER_2_43
*950 FILLER_2_68
*951 FILLER_2_75
*952 FILLER_2_83
*953 FILLER_2_85
*954 FILLER_2_97
*955 FILLER_30_107
*956 FILLER_30_115
*957 FILLER_30_126
*958 FILLER_30_13
*959 FILLER_30_138
*960 FILLER_30_141
*961 FILLER_30_153
*962 FILLER_30_165
*963 FILLER_30_177
*964 FILLER_30_189
*965 FILLER_30_195
*966 FILLER_30_197
*967 FILLER_30_209
*968 FILLER_30_221
*969 FILLER_30_233
*970 FILLER_30_24
*971 FILLER_30_245
*972 FILLER_30_251
*973 FILLER_30_253
*974 FILLER_30_265
*975 FILLER_30_277
*976 FILLER_30_289
*977 FILLER_30_29
*978 FILLER_30_297
*979 FILLER_30_3
*980 FILLER_30_33
*981 FILLER_30_37
*982 FILLER_30_62
*983 FILLER_30_74
*984 FILLER_30_82
*985 FILLER_30_85
*986 FILLER_30_9
*987 FILLER_30_97
*988 FILLER_31_103
*989 FILLER_31_111
*990 FILLER_31_113
*991 FILLER_31_125
*992 FILLER_31_137
*993 FILLER_31_14
*994 FILLER_31_148
*995 FILLER_31_160
*996 FILLER_31_169
*997 FILLER_31_177
*998 FILLER_31_189
*999 FILLER_31_201
*1000 FILLER_31_213
*1001 FILLER_31_221
*1002 FILLER_31_225
*1003 FILLER_31_237
*1004 FILLER_31_249
*1005 FILLER_31_26
*1006 FILLER_31_261
*1007 FILLER_31_273
*1008 FILLER_31_279
*1009 FILLER_31_281
*1010 FILLER_31_293
*1011 FILLER_31_3
*1012 FILLER_31_49
*1013 FILLER_31_55
*1014 FILLER_31_57
*1015 FILLER_31_67
*1016 FILLER_31_79
*1017 FILLER_31_91
*1018 FILLER_32_103
*1019 FILLER_32_109
*1020 FILLER_32_116
*1021 FILLER_32_128
*1022 FILLER_32_141
*1023 FILLER_32_156
*1024 FILLER_32_16
*1025 FILLER_32_168
*1026 FILLER_32_176
*1027 FILLER_32_180
*1028 FILLER_32_192
*1029 FILLER_32_197
*1030 FILLER_32_209
*1031 FILLER_32_221
*1032 FILLER_32_233
*1033 FILLER_32_245
*1034 FILLER_32_251
*1035 FILLER_32_253
*1036 FILLER_32_26
*1037 FILLER_32_265
*1038 FILLER_32_277
*1039 FILLER_32_289
*1040 FILLER_32_29
*1041 FILLER_32_297
*1042 FILLER_32_3
*1043 FILLER_32_37
*1044 FILLER_32_43
*1045 FILLER_32_57
*1046 FILLER_32_66
*1047 FILLER_32_78
*1048 FILLER_32_8
*1049 FILLER_32_85
*1050 FILLER_32_91
*1051 FILLER_33_108
*1052 FILLER_33_113
*1053 FILLER_33_122
*1054 FILLER_33_134
*1055 FILLER_33_146
*1056 FILLER_33_15
*1057 FILLER_33_158
*1058 FILLER_33_166
*1059 FILLER_33_169
*1060 FILLER_33_181
*1061 FILLER_33_193
*1062 FILLER_33_205
*1063 FILLER_33_217
*1064 FILLER_33_223
*1065 FILLER_33_225
*1066 FILLER_33_23
*1067 FILLER_33_237
*1068 FILLER_33_249
*1069 FILLER_33_261
*1070 FILLER_33_273
*1071 FILLER_33_279
*1072 FILLER_33_281
*1073 FILLER_33_293
*1074 FILLER_33_3
*1075 FILLER_33_31
*1076 FILLER_33_39
*1077 FILLER_33_49
*1078 FILLER_33_55
*1079 FILLER_33_57
*1080 FILLER_33_64
*1081 FILLER_33_71
*1082 FILLER_33_75
*1083 FILLER_33_82
*1084 FILLER_33_96
*1085 FILLER_34_105
*1086 FILLER_34_114
*1087 FILLER_34_126
*1088 FILLER_34_138
*1089 FILLER_34_141
*1090 FILLER_34_15
*1091 FILLER_34_153
*1092 FILLER_34_165
*1093 FILLER_34_177
*1094 FILLER_34_189
*1095 FILLER_34_195
*1096 FILLER_34_197
*1097 FILLER_34_209
*1098 FILLER_34_221
*1099 FILLER_34_233
*1100 FILLER_34_245
*1101 FILLER_34_251
*1102 FILLER_34_253
*1103 FILLER_34_265
*1104 FILLER_34_27
*1105 FILLER_34_277
*1106 FILLER_34_289
*1107 FILLER_34_29
*1108 FILLER_34_297
*1109 FILLER_34_3
*1110 FILLER_34_38
*1111 FILLER_34_46
*1112 FILLER_34_64
*1113 FILLER_34_78
*1114 FILLER_34_85
*1115 FILLER_34_97
*1116 FILLER_35_107
*1117 FILLER_35_111
*1118 FILLER_35_113
*1119 FILLER_35_121
*1120 FILLER_35_133
*1121 FILLER_35_145
*1122 FILLER_35_15
*1123 FILLER_35_157
*1124 FILLER_35_165
*1125 FILLER_35_169
*1126 FILLER_35_181
*1127 FILLER_35_193
*1128 FILLER_35_205
*1129 FILLER_35_217
*1130 FILLER_35_223
*1131 FILLER_35_225
*1132 FILLER_35_237
*1133 FILLER_35_249
*1134 FILLER_35_261
*1135 FILLER_35_27
*1136 FILLER_35_273
*1137 FILLER_35_279
*1138 FILLER_35_281
*1139 FILLER_35_293
*1140 FILLER_35_3
*1141 FILLER_35_34
*1142 FILLER_35_43
*1143 FILLER_35_52
*1144 FILLER_35_57
*1145 FILLER_35_63
*1146 FILLER_35_71
*1147 FILLER_35_77
*1148 FILLER_35_86
*1149 FILLER_35_98
*1150 FILLER_36_104
*1151 FILLER_36_116
*1152 FILLER_36_128
*1153 FILLER_36_141
*1154 FILLER_36_15
*1155 FILLER_36_153
*1156 FILLER_36_159
*1157 FILLER_36_167
*1158 FILLER_36_179
*1159 FILLER_36_191
*1160 FILLER_36_195
*1161 FILLER_36_197
*1162 FILLER_36_202
*1163 FILLER_36_214
*1164 FILLER_36_226
*1165 FILLER_36_238
*1166 FILLER_36_250
*1167 FILLER_36_253
*1168 FILLER_36_265
*1169 FILLER_36_27
*1170 FILLER_36_277
*1171 FILLER_36_289
*1172 FILLER_36_29
*1173 FILLER_36_297
*1174 FILLER_36_3
*1175 FILLER_36_37
*1176 FILLER_36_43
*1177 FILLER_36_49
*1178 FILLER_36_59
*1179 FILLER_36_65
*1180 FILLER_36_74
*1181 FILLER_36_82
*1182 FILLER_36_85
*1183 FILLER_36_97
*1184 FILLER_37_101
*1185 FILLER_37_109
*1186 FILLER_37_113
*1187 FILLER_37_125
*1188 FILLER_37_137
*1189 FILLER_37_141
*1190 FILLER_37_15
*1191 FILLER_37_153
*1192 FILLER_37_165
*1193 FILLER_37_169
*1194 FILLER_37_181
*1195 FILLER_37_193
*1196 FILLER_37_205
*1197 FILLER_37_217
*1198 FILLER_37_223
*1199 FILLER_37_225
*1200 FILLER_37_237
*1201 FILLER_37_249
*1202 FILLER_37_261
*1203 FILLER_37_27
*1204 FILLER_37_273
*1205 FILLER_37_279
*1206 FILLER_37_281
*1207 FILLER_37_293
*1208 FILLER_37_3
*1209 FILLER_37_39
*1210 FILLER_37_47
*1211 FILLER_37_52
*1212 FILLER_37_57
*1213 FILLER_37_61
*1214 FILLER_37_69
*1215 FILLER_37_89
*1216 FILLER_38_10
*1217 FILLER_38_109
*1218 FILLER_38_113
*1219 FILLER_38_121
*1220 FILLER_38_127
*1221 FILLER_38_133
*1222 FILLER_38_139
*1223 FILLER_38_141
*1224 FILLER_38_147
*1225 FILLER_38_159
*1226 FILLER_38_171
*1227 FILLER_38_18
*1228 FILLER_38_183
*1229 FILLER_38_195
*1230 FILLER_38_197
*1231 FILLER_38_209
*1232 FILLER_38_221
*1233 FILLER_38_233
*1234 FILLER_38_245
*1235 FILLER_38_25
*1236 FILLER_38_251
*1237 FILLER_38_253
*1238 FILLER_38_265
*1239 FILLER_38_277
*1240 FILLER_38_289
*1241 FILLER_38_29
*1242 FILLER_38_297
*1243 FILLER_38_3
*1244 FILLER_38_36
*1245 FILLER_38_48
*1246 FILLER_38_60
*1247 FILLER_38_72
*1248 FILLER_38_85
*1249 FILLER_38_97
*1250 FILLER_39_11
*1251 FILLER_39_110
*1252 FILLER_39_113
*1253 FILLER_39_125
*1254 FILLER_39_137
*1255 FILLER_39_149
*1256 FILLER_39_161
*1257 FILLER_39_167
*1258 FILLER_39_169
*1259 FILLER_39_17
*1260 FILLER_39_181
*1261 FILLER_39_193
*1262 FILLER_39_205
*1263 FILLER_39_217
*1264 FILLER_39_223
*1265 FILLER_39_225
*1266 FILLER_39_237
*1267 FILLER_39_249
*1268 FILLER_39_26
*1269 FILLER_39_261
*1270 FILLER_39_273
*1271 FILLER_39_279
*1272 FILLER_39_281
*1273 FILLER_39_293
*1274 FILLER_39_3
*1275 FILLER_39_36
*1276 FILLER_39_47
*1277 FILLER_39_55
*1278 FILLER_39_57
*1279 FILLER_39_73
*1280 FILLER_39_81
*1281 FILLER_39_90
*1282 FILLER_39_96
*1283 FILLER_3_104
*1284 FILLER_3_113
*1285 FILLER_3_125
*1286 FILLER_3_137
*1287 FILLER_3_149
*1288 FILLER_3_161
*1289 FILLER_3_167
*1290 FILLER_3_169
*1291 FILLER_3_181
*1292 FILLER_3_193
*1293 FILLER_3_205
*1294 FILLER_3_217
*1295 FILLER_3_223
*1296 FILLER_3_225
*1297 FILLER_3_237
*1298 FILLER_3_249
*1299 FILLER_3_261
*1300 FILLER_3_273
*1301 FILLER_3_279
*1302 FILLER_3_28
*1303 FILLER_3_281
*1304 FILLER_3_293
*1305 FILLER_3_3
*1306 FILLER_3_32
*1307 FILLER_3_54
*1308 FILLER_3_57
*1309 FILLER_3_80
*1310 FILLER_3_92
*1311 FILLER_40_109
*1312 FILLER_40_11
*1313 FILLER_40_121
*1314 FILLER_40_133
*1315 FILLER_40_139
*1316 FILLER_40_141
*1317 FILLER_40_15
*1318 FILLER_40_153
*1319 FILLER_40_162
*1320 FILLER_40_174
*1321 FILLER_40_182
*1322 FILLER_40_194
*1323 FILLER_40_197
*1324 FILLER_40_209
*1325 FILLER_40_221
*1326 FILLER_40_233
*1327 FILLER_40_24
*1328 FILLER_40_245
*1329 FILLER_40_251
*1330 FILLER_40_253
*1331 FILLER_40_265
*1332 FILLER_40_277
*1333 FILLER_40_289
*1334 FILLER_40_29
*1335 FILLER_40_297
*1336 FILLER_40_3
*1337 FILLER_40_37
*1338 FILLER_40_49
*1339 FILLER_40_61
*1340 FILLER_40_69
*1341 FILLER_40_75
*1342 FILLER_40_83
*1343 FILLER_40_85
*1344 FILLER_40_97
*1345 FILLER_41_107
*1346 FILLER_41_111
*1347 FILLER_41_113
*1348 FILLER_41_125
*1349 FILLER_41_133
*1350 FILLER_41_145
*1351 FILLER_41_153
*1352 FILLER_41_16
*1353 FILLER_41_165
*1354 FILLER_41_169
*1355 FILLER_41_181
*1356 FILLER_41_193
*1357 FILLER_41_205
*1358 FILLER_41_217
*1359 FILLER_41_223
*1360 FILLER_41_225
*1361 FILLER_41_237
*1362 FILLER_41_249
*1363 FILLER_41_26
*1364 FILLER_41_261
*1365 FILLER_41_273
*1366 FILLER_41_279
*1367 FILLER_41_281
*1368 FILLER_41_293
*1369 FILLER_41_3
*1370 FILLER_41_33
*1371 FILLER_41_41
*1372 FILLER_41_50
*1373 FILLER_41_57
*1374 FILLER_41_69
*1375 FILLER_41_75
*1376 FILLER_41_81
*1377 FILLER_41_95
*1378 FILLER_42_101
*1379 FILLER_42_113
*1380 FILLER_42_125
*1381 FILLER_42_137
*1382 FILLER_42_141
*1383 FILLER_42_153
*1384 FILLER_42_165
*1385 FILLER_42_177
*1386 FILLER_42_189
*1387 FILLER_42_195
*1388 FILLER_42_197
*1389 FILLER_42_209
*1390 FILLER_42_221
*1391 FILLER_42_23
*1392 FILLER_42_233
*1393 FILLER_42_245
*1394 FILLER_42_251
*1395 FILLER_42_253
*1396 FILLER_42_265
*1397 FILLER_42_27
*1398 FILLER_42_277
*1399 FILLER_42_289
*1400 FILLER_42_29
*1401 FILLER_42_297
*1402 FILLER_42_3
*1403 FILLER_42_39
*1404 FILLER_42_50
*1405 FILLER_42_62
*1406 FILLER_42_74
*1407 FILLER_42_82
*1408 FILLER_42_85
*1409 FILLER_42_94
*1410 FILLER_43_101
*1411 FILLER_43_109
*1412 FILLER_43_113
*1413 FILLER_43_124
*1414 FILLER_43_136
*1415 FILLER_43_148
*1416 FILLER_43_160
*1417 FILLER_43_169
*1418 FILLER_43_181
*1419 FILLER_43_193
*1420 FILLER_43_205
*1421 FILLER_43_217
*1422 FILLER_43_223
*1423 FILLER_43_225
*1424 FILLER_43_23
*1425 FILLER_43_237
*1426 FILLER_43_249
*1427 FILLER_43_261
*1428 FILLER_43_273
*1429 FILLER_43_279
*1430 FILLER_43_281
*1431 FILLER_43_293
*1432 FILLER_43_3
*1433 FILLER_43_31
*1434 FILLER_43_43
*1435 FILLER_43_55
*1436 FILLER_43_57
*1437 FILLER_43_69
*1438 FILLER_43_81
*1439 FILLER_43_90
*1440 FILLER_44_107
*1441 FILLER_44_119
*1442 FILLER_44_131
*1443 FILLER_44_139
*1444 FILLER_44_141
*1445 FILLER_44_161
*1446 FILLER_44_17
*1447 FILLER_44_173
*1448 FILLER_44_185
*1449 FILLER_44_193
*1450 FILLER_44_197
*1451 FILLER_44_209
*1452 FILLER_44_221
*1453 FILLER_44_233
*1454 FILLER_44_24
*1455 FILLER_44_245
*1456 FILLER_44_251
*1457 FILLER_44_253
*1458 FILLER_44_265
*1459 FILLER_44_277
*1460 FILLER_44_289
*1461 FILLER_44_29
*1462 FILLER_44_297
*1463 FILLER_44_3
*1464 FILLER_44_41
*1465 FILLER_44_49
*1466 FILLER_44_61
*1467 FILLER_44_7
*1468 FILLER_44_73
*1469 FILLER_44_81
*1470 FILLER_44_85
*1471 FILLER_44_93
*1472 FILLER_44_98
*1473 FILLER_45_110
*1474 FILLER_45_113
*1475 FILLER_45_125
*1476 FILLER_45_137
*1477 FILLER_45_149
*1478 FILLER_45_161
*1479 FILLER_45_167
*1480 FILLER_45_169
*1481 FILLER_45_181
*1482 FILLER_45_19
*1483 FILLER_45_193
*1484 FILLER_45_205
*1485 FILLER_45_217
*1486 FILLER_45_223
*1487 FILLER_45_225
*1488 FILLER_45_237
*1489 FILLER_45_249
*1490 FILLER_45_261
*1491 FILLER_45_273
*1492 FILLER_45_279
*1493 FILLER_45_281
*1494 FILLER_45_293
*1495 FILLER_45_3
*1496 FILLER_45_30
*1497 FILLER_45_42
*1498 FILLER_45_54
*1499 FILLER_45_57
*1500 FILLER_45_66
*1501 FILLER_45_76
*1502 FILLER_45_88
*1503 FILLER_45_9
*1504 FILLER_45_99
*1505 FILLER_46_101
*1506 FILLER_46_118
*1507 FILLER_46_130
*1508 FILLER_46_138
*1509 FILLER_46_141
*1510 FILLER_46_153
*1511 FILLER_46_165
*1512 FILLER_46_177
*1513 FILLER_46_189
*1514 FILLER_46_195
*1515 FILLER_46_197
*1516 FILLER_46_209
*1517 FILLER_46_221
*1518 FILLER_46_23
*1519 FILLER_46_233
*1520 FILLER_46_245
*1521 FILLER_46_251
*1522 FILLER_46_253
*1523 FILLER_46_265
*1524 FILLER_46_27
*1525 FILLER_46_277
*1526 FILLER_46_289
*1527 FILLER_46_29
*1528 FILLER_46_297
*1529 FILLER_46_3
*1530 FILLER_46_34
*1531 FILLER_46_41
*1532 FILLER_46_48
*1533 FILLER_46_60
*1534 FILLER_46_72
*1535 FILLER_46_85
*1536 FILLER_46_97
*1537 FILLER_47_100
*1538 FILLER_47_113
*1539 FILLER_47_125
*1540 FILLER_47_137
*1541 FILLER_47_14
*1542 FILLER_47_149
*1543 FILLER_47_161
*1544 FILLER_47_167
*1545 FILLER_47_169
*1546 FILLER_47_177
*1547 FILLER_47_187
*1548 FILLER_47_199
*1549 FILLER_47_20
*1550 FILLER_47_211
*1551 FILLER_47_223
*1552 FILLER_47_225
*1553 FILLER_47_237
*1554 FILLER_47_249
*1555 FILLER_47_261
*1556 FILLER_47_273
*1557 FILLER_47_279
*1558 FILLER_47_281
*1559 FILLER_47_29
*1560 FILLER_47_293
*1561 FILLER_47_3
*1562 FILLER_47_38
*1563 FILLER_47_45
*1564 FILLER_47_53
*1565 FILLER_47_57
*1566 FILLER_47_64
*1567 FILLER_47_76
*1568 FILLER_47_88
*1569 FILLER_48_109
*1570 FILLER_48_121
*1571 FILLER_48_138
*1572 FILLER_48_141
*1573 FILLER_48_153
*1574 FILLER_48_165
*1575 FILLER_48_177
*1576 FILLER_48_189
*1577 FILLER_48_195
*1578 FILLER_48_197
*1579 FILLER_48_209
*1580 FILLER_48_221
*1581 FILLER_48_233
*1582 FILLER_48_245
*1583 FILLER_48_251
*1584 FILLER_48_253
*1585 FILLER_48_26
*1586 FILLER_48_265
*1587 FILLER_48_277
*1588 FILLER_48_289
*1589 FILLER_48_29
*1590 FILLER_48_297
*1591 FILLER_48_3
*1592 FILLER_48_40
*1593 FILLER_48_53
*1594 FILLER_48_66
*1595 FILLER_48_78
*1596 FILLER_48_85
*1597 FILLER_48_9
*1598 FILLER_48_97
*1599 FILLER_49_111
*1600 FILLER_49_113
*1601 FILLER_49_125
*1602 FILLER_49_137
*1603 FILLER_49_14
*1604 FILLER_49_149
*1605 FILLER_49_161
*1606 FILLER_49_167
*1607 FILLER_49_169
*1608 FILLER_49_181
*1609 FILLER_49_193
*1610 FILLER_49_205
*1611 FILLER_49_217
*1612 FILLER_49_223
*1613 FILLER_49_225
*1614 FILLER_49_237
*1615 FILLER_49_249
*1616 FILLER_49_26
*1617 FILLER_49_261
*1618 FILLER_49_273
*1619 FILLER_49_279
*1620 FILLER_49_281
*1621 FILLER_49_293
*1622 FILLER_49_3
*1623 FILLER_49_32
*1624 FILLER_49_40
*1625 FILLER_49_52
*1626 FILLER_49_57
*1627 FILLER_49_63
*1628 FILLER_49_75