*SPEF "ieee 1481-1999"
*DESIGN "jglim_7seg"
*DATE "11:11:11 Fri 11 11, 1111"
*VENDOR "OpenRCX"
*PROGRAM "Parallel Extraction"
*VERSION "1.0"
*DESIGN_FLOW "NAME_SCOPE LOCAL" "PIN_CAP NONE"
*DIVIDER /
*DELIMITER :
*BUS_DELIMITER []
*T_UNIT 1 NS
*C_UNIT 1 PF
*R_UNIT 1 OHM
*L_UNIT 1 HENRY

*NAME_MAP
*1 io_in[0]
*2 io_in[1]
*3 io_in[2]
*4 io_in[3]
*5 io_in[4]
*6 io_in[5]
*7 io_in[6]
*8 io_in[7]
*9 io_out[0]
*10 io_out[1]
*11 io_out[2]
*12 io_out[3]
*13 io_out[4]
*14 io_out[5]
*15 io_out[6]
*16 io_out[7]
*19 _00_
*20 _01_
*21 _02_
*22 _03_
*23 _04_
*24 _05_
*25 _06_
*26 _07_
*27 _08_
*28 _09_
*29 _10_
*30 _11_
*31 _12_
*32 _13_
*33 _14_
*34 _15_
*35 _16_
*36 _17_
*37 _18_
*38 _19_
*39 _20_
*40 _21_
*41 _22_
*42 _23_
*43 clknet_0__04_
*44 clknet_0__08_
*45 clknet_0__09_
*46 clknet_0__10_
*47 clknet_0__13_
*48 clknet_0__15_
*49 clknet_0__16_
*50 clknet_0__20_
*51 clknet_0__21_
*52 clknet_0_io_in[0]
*53 clknet_1_0__leaf__04_
*54 clknet_1_0__leaf__08_
*55 clknet_1_0__leaf__09_
*56 clknet_1_0__leaf__10_
*57 clknet_1_0__leaf__13_
*58 clknet_1_0__leaf__15_
*59 clknet_1_0__leaf__16_
*60 clknet_1_0__leaf__20_
*61 clknet_1_0__leaf__21_
*62 clknet_1_0__leaf_io_in[0]
*63 clknet_1_1__leaf__04_
*64 clknet_1_1__leaf__08_
*65 clknet_1_1__leaf__09_
*66 clknet_1_1__leaf__10_
*67 clknet_1_1__leaf__13_
*68 clknet_1_1__leaf__15_
*69 clknet_1_1__leaf__16_
*70 clknet_1_1__leaf__20_
*71 clknet_1_1__leaf__21_
*72 clknet_1_1__leaf_io_in[0]
*73 net1
*74 net2
*75 net3
*76 net4
*77 net5
*78 FILLER_0_109
*79 FILLER_0_113
*80 FILLER_0_125
*81 FILLER_0_137
*82 FILLER_0_141
*83 FILLER_0_15
*84 FILLER_0_153
*85 FILLER_0_165
*86 FILLER_0_169
*87 FILLER_0_181
*88 FILLER_0_193
*89 FILLER_0_197
*90 FILLER_0_209
*91 FILLER_0_221
*92 FILLER_0_225
*93 FILLER_0_237
*94 FILLER_0_249
*95 FILLER_0_253
*96 FILLER_0_265
*97 FILLER_0_27
*98 FILLER_0_277
*99 FILLER_0_281
*100 FILLER_0_29
*101 FILLER_0_293
*102 FILLER_0_3
*103 FILLER_0_41
*104 FILLER_0_53
*105 FILLER_0_57
*106 FILLER_0_69
*107 FILLER_0_81
*108 FILLER_0_85
*109 FILLER_0_97
*110 FILLER_10_109
*111 FILLER_10_121
*112 FILLER_10_133
*113 FILLER_10_139
*114 FILLER_10_141
*115 FILLER_10_15
*116 FILLER_10_153
*117 FILLER_10_165
*118 FILLER_10_177
*119 FILLER_10_189
*120 FILLER_10_195
*121 FILLER_10_197
*122 FILLER_10_209
*123 FILLER_10_221
*124 FILLER_10_233
*125 FILLER_10_245
*126 FILLER_10_251
*127 FILLER_10_253
*128 FILLER_10_265
*129 FILLER_10_27
*130 FILLER_10_277
*131 FILLER_10_289
*132 FILLER_10_29
*133 FILLER_10_297
*134 FILLER_10_3
*135 FILLER_10_41
*136 FILLER_10_53
*137 FILLER_10_65
*138 FILLER_10_77
*139 FILLER_10_83
*140 FILLER_10_85
*141 FILLER_10_97
*142 FILLER_11_105
*143 FILLER_11_111
*144 FILLER_11_113
*145 FILLER_11_125
*146 FILLER_11_137
*147 FILLER_11_149
*148 FILLER_11_15
*149 FILLER_11_161
*150 FILLER_11_167
*151 FILLER_11_169
*152 FILLER_11_181
*153 FILLER_11_193
*154 FILLER_11_205
*155 FILLER_11_217
*156 FILLER_11_223
*157 FILLER_11_225
*158 FILLER_11_237
*159 FILLER_11_249
*160 FILLER_11_261
*161 FILLER_11_27
*162 FILLER_11_273
*163 FILLER_11_279
*164 FILLER_11_281
*165 FILLER_11_293
*166 FILLER_11_3
*167 FILLER_11_39
*168 FILLER_11_51
*169 FILLER_11_55
*170 FILLER_11_57
*171 FILLER_11_69
*172 FILLER_11_81
*173 FILLER_11_93
*174 FILLER_12_109
*175 FILLER_12_121
*176 FILLER_12_133
*177 FILLER_12_139
*178 FILLER_12_141
*179 FILLER_12_153
*180 FILLER_12_165
*181 FILLER_12_177
*182 FILLER_12_189
*183 FILLER_12_195
*184 FILLER_12_197
*185 FILLER_12_209
*186 FILLER_12_21
*187 FILLER_12_221
*188 FILLER_12_233
*189 FILLER_12_245
*190 FILLER_12_251
*191 FILLER_12_253
*192 FILLER_12_265
*193 FILLER_12_27
*194 FILLER_12_277
*195 FILLER_12_289
*196 FILLER_12_29
*197 FILLER_12_297
*198 FILLER_12_3
*199 FILLER_12_41
*200 FILLER_12_53
*201 FILLER_12_65
*202 FILLER_12_77
*203 FILLER_12_83
*204 FILLER_12_85
*205 FILLER_12_9
*206 FILLER_12_97
*207 FILLER_13_105
*208 FILLER_13_111
*209 FILLER_13_113
*210 FILLER_13_125
*211 FILLER_13_137
*212 FILLER_13_149
*213 FILLER_13_15
*214 FILLER_13_161
*215 FILLER_13_167
*216 FILLER_13_169
*217 FILLER_13_181
*218 FILLER_13_193
*219 FILLER_13_205
*220 FILLER_13_217
*221 FILLER_13_223
*222 FILLER_13_225
*223 FILLER_13_237
*224 FILLER_13_249
*225 FILLER_13_261
*226 FILLER_13_27
*227 FILLER_13_273
*228 FILLER_13_279
*229 FILLER_13_281
*230 FILLER_13_293
*231 FILLER_13_3
*232 FILLER_13_39
*233 FILLER_13_51
*234 FILLER_13_55
*235 FILLER_13_57
*236 FILLER_13_69
*237 FILLER_13_81
*238 FILLER_13_93
*239 FILLER_14_109
*240 FILLER_14_121
*241 FILLER_14_133
*242 FILLER_14_139
*243 FILLER_14_141
*244 FILLER_14_15
*245 FILLER_14_153
*246 FILLER_14_165
*247 FILLER_14_177
*248 FILLER_14_189
*249 FILLER_14_195
*250 FILLER_14_197
*251 FILLER_14_209
*252 FILLER_14_221
*253 FILLER_14_233
*254 FILLER_14_245
*255 FILLER_14_251
*256 FILLER_14_253
*257 FILLER_14_265
*258 FILLER_14_27
*259 FILLER_14_277
*260 FILLER_14_289
*261 FILLER_14_29
*262 FILLER_14_297
*263 FILLER_14_3
*264 FILLER_14_41
*265 FILLER_14_53
*266 FILLER_14_65
*267 FILLER_14_77
*268 FILLER_14_83
*269 FILLER_14_85
*270 FILLER_14_97
*271 FILLER_15_105
*272 FILLER_15_111
*273 FILLER_15_113
*274 FILLER_15_125
*275 FILLER_15_137
*276 FILLER_15_149
*277 FILLER_15_15
*278 FILLER_15_161
*279 FILLER_15_167
*280 FILLER_15_169
*281 FILLER_15_181
*282 FILLER_15_193
*283 FILLER_15_205
*284 FILLER_15_217
*285 FILLER_15_223
*286 FILLER_15_225
*287 FILLER_15_237
*288 FILLER_15_249
*289 FILLER_15_261
*290 FILLER_15_27
*291 FILLER_15_273
*292 FILLER_15_279
*293 FILLER_15_281
*294 FILLER_15_293
*295 FILLER_15_3
*296 FILLER_15_39
*297 FILLER_15_51
*298 FILLER_15_55
*299 FILLER_15_57
*300 FILLER_15_69
*301 FILLER_15_81
*302 FILLER_15_93
*303 FILLER_16_109
*304 FILLER_16_121
*305 FILLER_16_133
*306 FILLER_16_139
*307 FILLER_16_141
*308 FILLER_16_153
*309 FILLER_16_165
*310 FILLER_16_177
*311 FILLER_16_189
*312 FILLER_16_195
*313 FILLER_16_197
*314 FILLER_16_209
*315 FILLER_16_21
*316 FILLER_16_221
*317 FILLER_16_233
*318 FILLER_16_245
*319 FILLER_16_251
*320 FILLER_16_253
*321 FILLER_16_265
*322 FILLER_16_27
*323 FILLER_16_277
*324 FILLER_16_289
*325 FILLER_16_29
*326 FILLER_16_297
*327 FILLER_16_3
*328 FILLER_16_41
*329 FILLER_16_53
*330 FILLER_16_65
*331 FILLER_16_77
*332 FILLER_16_83
*333 FILLER_16_85
*334 FILLER_16_9
*335 FILLER_16_97
*336 FILLER_17_105
*337 FILLER_17_111
*338 FILLER_17_113
*339 FILLER_17_125
*340 FILLER_17_137
*341 FILLER_17_149
*342 FILLER_17_15
*343 FILLER_17_161
*344 FILLER_17_167
*345 FILLER_17_169
*346 FILLER_17_181
*347 FILLER_17_193
*348 FILLER_17_205
*349 FILLER_17_217
*350 FILLER_17_223
*351 FILLER_17_225
*352 FILLER_17_237
*353 FILLER_17_249
*354 FILLER_17_261
*355 FILLER_17_27
*356 FILLER_17_273
*357 FILLER_17_279
*358 FILLER_17_281
*359 FILLER_17_293
*360 FILLER_17_3
*361 FILLER_17_39
*362 FILLER_17_51
*363 FILLER_17_55
*364 FILLER_17_57
*365 FILLER_17_69
*366 FILLER_17_81
*367 FILLER_17_93
*368 FILLER_18_109
*369 FILLER_18_121
*370 FILLER_18_133
*371 FILLER_18_139
*372 FILLER_18_141
*373 FILLER_18_15
*374 FILLER_18_153
*375 FILLER_18_165
*376 FILLER_18_177
*377 FILLER_18_189
*378 FILLER_18_195
*379 FILLER_18_197
*380 FILLER_18_209
*381 FILLER_18_221
*382 FILLER_18_233
*383 FILLER_18_245
*384 FILLER_18_251
*385 FILLER_18_253
*386 FILLER_18_265
*387 FILLER_18_27
*388 FILLER_18_277
*389 FILLER_18_289
*390 FILLER_18_29
*391 FILLER_18_297
*392 FILLER_18_3
*393 FILLER_18_41
*394 FILLER_18_53
*395 FILLER_18_65
*396 FILLER_18_77
*397 FILLER_18_83
*398 FILLER_18_85
*399 FILLER_18_97
*400 FILLER_19_105
*401 FILLER_19_111
*402 FILLER_19_113
*403 FILLER_19_125
*404 FILLER_19_137
*405 FILLER_19_149
*406 FILLER_19_15
*407 FILLER_19_161
*408 FILLER_19_167
*409 FILLER_19_169
*410 FILLER_19_181
*411 FILLER_19_193
*412 FILLER_19_205
*413 FILLER_19_217
*414 FILLER_19_223
*415 FILLER_19_225
*416 FILLER_19_237
*417 FILLER_19_249
*418 FILLER_19_261
*419 FILLER_19_27
*420 FILLER_19_273
*421 FILLER_19_279
*422 FILLER_19_281
*423 FILLER_19_293
*424 FILLER_19_3
*425 FILLER_19_39
*426 FILLER_19_51
*427 FILLER_19_55
*428 FILLER_19_57
*429 FILLER_19_69
*430 FILLER_19_81
*431 FILLER_19_93
*432 FILLER_1_105
*433 FILLER_1_111
*434 FILLER_1_113
*435 FILLER_1_125
*436 FILLER_1_137
*437 FILLER_1_149
*438 FILLER_1_15
*439 FILLER_1_161
*440 FILLER_1_167
*441 FILLER_1_169
*442 FILLER_1_181
*443 FILLER_1_193
*444 FILLER_1_205
*445 FILLER_1_217
*446 FILLER_1_223
*447 FILLER_1_225
*448 FILLER_1_237
*449 FILLER_1_249
*450 FILLER_1_261
*451 FILLER_1_27
*452 FILLER_1_273
*453 FILLER_1_279
*454 FILLER_1_281
*455 FILLER_1_293
*456 FILLER_1_3
*457 FILLER_1_39
*458 FILLER_1_51
*459 FILLER_1_55
*460 FILLER_1_57
*461 FILLER_1_69
*462 FILLER_1_81
*463 FILLER_1_93
*464 FILLER_20_109
*465 FILLER_20_121
*466 FILLER_20_133
*467 FILLER_20_139
*468 FILLER_20_141
*469 FILLER_20_153
*470 FILLER_20_165
*471 FILLER_20_177
*472 FILLER_20_189
*473 FILLER_20_195
*474 FILLER_20_197
*475 FILLER_20_20
*476 FILLER_20_209
*477 FILLER_20_221
*478 FILLER_20_233
*479 FILLER_20_245
*480 FILLER_20_251
*481 FILLER_20_253
*482 FILLER_20_265
*483 FILLER_20_277
*484 FILLER_20_289
*485 FILLER_20_29
*486 FILLER_20_297
*487 FILLER_20_3
*488 FILLER_20_41
*489 FILLER_20_53
*490 FILLER_20_65
*491 FILLER_20_77
*492 FILLER_20_8
*493 FILLER_20_83
*494 FILLER_20_85
*495 FILLER_20_97
*496 FILLER_21_105
*497 FILLER_21_111
*498 FILLER_21_113
*499 FILLER_21_125
*500 FILLER_21_137
*501 FILLER_21_149
*502 FILLER_21_15
*503 FILLER_21_161
*504 FILLER_21_167
*505 FILLER_21_169
*506 FILLER_21_181
*507 FILLER_21_193
*508 FILLER_21_205
*509 FILLER_21_217
*510 FILLER_21_223
*511 FILLER_21_225
*512 FILLER_21_237
*513 FILLER_21_249
*514 FILLER_21_261
*515 FILLER_21_27
*516 FILLER_21_273
*517 FILLER_21_279
*518 FILLER_21_281
*519 FILLER_21_293
*520 FILLER_21_3
*521 FILLER_21_39
*522 FILLER_21_51
*523 FILLER_21_55
*524 FILLER_21_57
*525 FILLER_21_69
*526 FILLER_21_81
*527 FILLER_21_93
*528 FILLER_22_109
*529 FILLER_22_121
*530 FILLER_22_133
*531 FILLER_22_139
*532 FILLER_22_141
*533 FILLER_22_15
*534 FILLER_22_153
*535 FILLER_22_165
*536 FILLER_22_177
*537 FILLER_22_189
*538 FILLER_22_195
*539 FILLER_22_197
*540 FILLER_22_209
*541 FILLER_22_221
*542 FILLER_22_233
*543 FILLER_22_245
*544 FILLER_22_251
*545 FILLER_22_253
*546 FILLER_22_265
*547 FILLER_22_27
*548 FILLER_22_277
*549 FILLER_22_289
*550 FILLER_22_29
*551 FILLER_22_297
*552 FILLER_22_3
*553 FILLER_22_41
*554 FILLER_22_53
*555 FILLER_22_65
*556 FILLER_22_77
*557 FILLER_22_83
*558 FILLER_22_85
*559 FILLER_22_97
*560 FILLER_23_105
*561 FILLER_23_111
*562 FILLER_23_113
*563 FILLER_23_125
*564 FILLER_23_137
*565 FILLER_23_149
*566 FILLER_23_15
*567 FILLER_23_161
*568 FILLER_23_167
*569 FILLER_23_169
*570 FILLER_23_181
*571 FILLER_23_193
*572 FILLER_23_205
*573 FILLER_23_217
*574 FILLER_23_223
*575 FILLER_23_225
*576 FILLER_23_237
*577 FILLER_23_249
*578 FILLER_23_261
*579 FILLER_23_27
*580 FILLER_23_273
*581 FILLER_23_279
*582 FILLER_23_281
*583 FILLER_23_293
*584 FILLER_23_3
*585 FILLER_23_39
*586 FILLER_23_51
*587 FILLER_23_55
*588 FILLER_23_57
*589 FILLER_23_69
*590 FILLER_23_81
*591 FILLER_23_93
*592 FILLER_24_109
*593 FILLER_24_121
*594 FILLER_24_133
*595 FILLER_24_139
*596 FILLER_24_141
*597 FILLER_24_15
*598 FILLER_24_153
*599 FILLER_24_165
*600 FILLER_24_177
*601 FILLER_24_189
*602 FILLER_24_195
*603 FILLER_24_197
*604 FILLER_24_209
*605 FILLER_24_221
*606 FILLER_24_233
*607 FILLER_24_245
*608 FILLER_24_251
*609 FILLER_24_253
*610 FILLER_24_265
*611 FILLER_24_27
*612 FILLER_24_277
*613 FILLER_24_289
*614 FILLER_24_29
*615 FILLER_24_297
*616 FILLER_24_3
*617 FILLER_24_43
*618 FILLER_24_55
*619 FILLER_24_67
*620 FILLER_24_79
*621 FILLER_24_83
*622 FILLER_24_85
*623 FILLER_24_97
*624 FILLER_25_105
*625 FILLER_25_111
*626 FILLER_25_113
*627 FILLER_25_125
*628 FILLER_25_137
*629 FILLER_25_14
*630 FILLER_25_149
*631 FILLER_25_161
*632 FILLER_25_167
*633 FILLER_25_169
*634 FILLER_25_181
*635 FILLER_25_193
*636 FILLER_25_205
*637 FILLER_25_217
*638 FILLER_25_223
*639 FILLER_25_225
*640 FILLER_25_237
*641 FILLER_25_249
*642 FILLER_25_26
*643 FILLER_25_261
*644 FILLER_25_273
*645 FILLER_25_279
*646 FILLER_25_281
*647 FILLER_25_293
*648 FILLER_25_3
*649 FILLER_25_38
*650 FILLER_25_50
*651 FILLER_25_57
*652 FILLER_25_69
*653 FILLER_25_7
*654 FILLER_25_81
*655 FILLER_25_93
*656 FILLER_26_109
*657 FILLER_26_121
*658 FILLER_26_133
*659 FILLER_26_139
*660 FILLER_26_141
*661 FILLER_26_15
*662 FILLER_26_153
*663 FILLER_26_165
*664 FILLER_26_177
*665 FILLER_26_189
*666 FILLER_26_195
*667 FILLER_26_197
*668 FILLER_26_209
*669 FILLER_26_221
*670 FILLER_26_233
*671 FILLER_26_245
*672 FILLER_26_251
*673 FILLER_26_253
*674 FILLER_26_265
*675 FILLER_26_27
*676 FILLER_26_277
*677 FILLER_26_289
*678 FILLER_26_29
*679 FILLER_26_297
*680 FILLER_26_3
*681 FILLER_26_41
*682 FILLER_26_53
*683 FILLER_26_65
*684 FILLER_26_77
*685 FILLER_26_83
*686 FILLER_26_85
*687 FILLER_26_97
*688 FILLER_27_105
*689 FILLER_27_111
*690 FILLER_27_113
*691 FILLER_27_12
*692 FILLER_27_125
*693 FILLER_27_137
*694 FILLER_27_149
*695 FILLER_27_161
*696 FILLER_27_167
*697 FILLER_27_169
*698 FILLER_27_181
*699 FILLER_27_193
*700 FILLER_27_205
*701 FILLER_27_217
*702 FILLER_27_223
*703 FILLER_27_225
*704 FILLER_27_237
*705 FILLER_27_24
*706 FILLER_27_249
*707 FILLER_27_261
*708 FILLER_27_273
*709 FILLER_27_279
*710 FILLER_27_281
*711 FILLER_27_293
*712 FILLER_27_3
*713 FILLER_27_36
*714 FILLER_27_48
*715 FILLER_27_57
*716 FILLER_27_69
*717 FILLER_27_81
*718 FILLER_27_93
*719 FILLER_28_109
*720 FILLER_28_11
*721 FILLER_28_121
*722 FILLER_28_133
*723 FILLER_28_139
*724 FILLER_28_141
*725 FILLER_28_153
*726 FILLER_28_165
*727 FILLER_28_177
*728 FILLER_28_18
*729 FILLER_28_189
*730 FILLER_28_195
*731 FILLER_28_197
*732 FILLER_28_209
*733 FILLER_28_221
*734 FILLER_28_233
*735 FILLER_28_245
*736 FILLER_28_251
*737 FILLER_28_253
*738 FILLER_28_26
*739 FILLER_28_265
*740 FILLER_28_277
*741 FILLER_28_289
*742 FILLER_28_29
*743 FILLER_28_297
*744 FILLER_28_3
*745 FILLER_28_41
*746 FILLER_28_53
*747 FILLER_28_65
*748 FILLER_28_77
*749 FILLER_28_83
*750 FILLER_28_85
*751 FILLER_28_97
*752 FILLER_29_105
*753 FILLER_29_111
*754 FILLER_29_113
*755 FILLER_29_125
*756 FILLER_29_13
*757 FILLER_29_137
*758 FILLER_29_149
*759 FILLER_29_161
*760 FILLER_29_167
*761 FILLER_29_169
*762 FILLER_29_181
*763 FILLER_29_193
*764 FILLER_29_205
*765 FILLER_29_217
*766 FILLER_29_223
*767 FILLER_29_225
*768 FILLER_29_237
*769 FILLER_29_249
*770 FILLER_29_261
*771 FILLER_29_273
*772 FILLER_29_279
*773 FILLER_29_281
*774 FILLER_29_293
*775 FILLER_29_3
*776 FILLER_29_39
*777 FILLER_29_51
*778 FILLER_29_55
*779 FILLER_29_57
*780 FILLER_29_69
*781 FILLER_29_81
*782 FILLER_29_93
*783 FILLER_2_109
*784 FILLER_2_121
*785 FILLER_2_133
*786 FILLER_2_139
*787 FILLER_2_141
*788 FILLER_2_15
*789 FILLER_2_153
*790 FILLER_2_165
*791 FILLER_2_177
*792 FILLER_2_189
*793 FILLER_2_195
*794 FILLER_2_197
*795 FILLER_2_209
*796 FILLER_2_221
*797 FILLER_2_233
*798 FILLER_2_245
*799 FILLER_2_251
*800 FILLER_2_253
*801 FILLER_2_265
*802 FILLER_2_27
*803 FILLER_2_277
*804 FILLER_2_289
*805 FILLER_2_29
*806 FILLER_2_297
*807 FILLER_2_3
*808 FILLER_2_41
*809 FILLER_2_53
*810 FILLER_2_65
*811 FILLER_2_77
*812 FILLER_2_83
*813 FILLER_2_85
*814 FILLER_2_97
*815 FILLER_30_109
*816 FILLER_30_121
*817 FILLER_30_133
*818 FILLER_30_139
*819 FILLER_30_141
*820 FILLER_30_153
*821 FILLER_30_165
*822 FILLER_30_177
*823 FILLER_30_189
*824 FILLER_30_195
*825 FILLER_30_197
*826 FILLER_30_209
*827 FILLER_30_221
*828 FILLER_30_233
*829 FILLER_30_245
*830 FILLER_30_25
*831 FILLER_30_251
*832 FILLER_30_253
*833 FILLER_30_265
*834 FILLER_30_277
*835 FILLER_30_289
*836 FILLER_30_29
*837 FILLER_30_297
*838 FILLER_30_3
*839 FILLER_30_41
*840 FILLER_30_53
*841 FILLER_30_65
*842 FILLER_30_77
*843 FILLER_30_83
*844 FILLER_30_85
*845 FILLER_30_97
*846 FILLER_31_105
*847 FILLER_31_111
*848 FILLER_31_113
*849 FILLER_31_125
*850 FILLER_31_137
*851 FILLER_31_149
*852 FILLER_31_15
*853 FILLER_31_161
*854 FILLER_31_167
*855 FILLER_31_169
*856 FILLER_31_181
*857 FILLER_31_193
*858 FILLER_31_205
*859 FILLER_31_217
*860 FILLER_31_223
*861 FILLER_31_225
*862 FILLER_31_237
*863 FILLER_31_249
*864 FILLER_31_261
*865 FILLER_31_273
*866 FILLER_31_279
*867 FILLER_31_281
*868 FILLER_31_293
*869 FILLER_31_3
*870 FILLER_31_36
*871 FILLER_31_48
*872 FILLER_31_57
*873 FILLER_31_69
*874 FILLER_31_81
*875 FILLER_31_93
*876 FILLER_32_109
*877 FILLER_32_121
*878 FILLER_32_133
*879 FILLER_32_139
*880 FILLER_32_141
*881 FILLER_32_153
*882 FILLER_32_165
*883 FILLER_32_177
*884 FILLER_32_189
*885 FILLER_32_195
*886 FILLER_32_197
*887 FILLER_32_209
*888 FILLER_32_221
*889 FILLER_32_233
*890 FILLER_32_245
*891 FILLER_32_25
*892 FILLER_32_251
*893 FILLER_32_253
*894 FILLER_32_265
*895 FILLER_32_277
*896 FILLER_32_289
*897 FILLER_32_29
*898 FILLER_32_297
*899 FILLER_32_3
*900 FILLER_32_44
*901 FILLER_32_56
*902 FILLER_32_68
*903 FILLER_32_80
*904 FILLER_32_85
*905 FILLER_32_97
*906 FILLER_33_105
*907 FILLER_33_111
*908 FILLER_33_113
*909 FILLER_33_125
*910 FILLER_33_137
*911 FILLER_33_149
*912 FILLER_33_161
*913 FILLER_33_167
*914 FILLER_33_169
*915 FILLER_33_181
*916 FILLER_33_193
*917 FILLER_33_205
*918 FILLER_33_217
*919 FILLER_33_223
*920 FILLER_33_225
*921 FILLER_33_237
*922 FILLER_33_249
*923 FILLER_33_25
*924 FILLER_33_261
*925 FILLER_33_273
*926 FILLER_33_279
*927 FILLER_33_281
*928 FILLER_33_293
*929 FILLER_33_3
*930 FILLER_33_38
*931 FILLER_33_50
*932 FILLER_33_57
*933 FILLER_33_69
*934 FILLER_33_81
*935 FILLER_33_93
*936 FILLER_34_109
*937 FILLER_34_121
*938 FILLER_34_133
*939 FILLER_34_139
*940 FILLER_34_141
*941 FILLER_34_153
*942 FILLER_34_165
*943 FILLER_34_177
*944 FILLER_34_189
*945 FILLER_34_195
*946 FILLER_34_197
*947 FILLER_34_209
*948 FILLER_34_221
*949 FILLER_34_233
*950 FILLER_34_245
*951 FILLER_34_25
*952 FILLER_34_251
*953 FILLER_34_253
*954 FILLER_34_265
*955 FILLER_34_277
*956 FILLER_34_289
*957 FILLER_34_29
*958 FILLER_34_297
*959 FILLER_34_3
*960 FILLER_34_51
*961 FILLER_34_63
*962 FILLER_34_75
*963 FILLER_34_83
*964 FILLER_34_85
*965 FILLER_34_97
*966 FILLER_35_105
*967 FILLER_35_111
*968 FILLER_35_113
*969 FILLER_35_12
*970 FILLER_35_125
*971 FILLER_35_137
*972 FILLER_35_149
*973 FILLER_35_161
*974 FILLER_35_167
*975 FILLER_35_169
*976 FILLER_35_181
*977 FILLER_35_193
*978 FILLER_35_205
*979 FILLER_35_217
*980 FILLER_35_223
*981 FILLER_35_225
*982 FILLER_35_237
*983 FILLER_35_249
*984 FILLER_35_261
*985 FILLER_35_273
*986 FILLER_35_279
*987 FILLER_35_281
*988 FILLER_35_293
*989 FILLER_35_3
*990 FILLER_35_36
*991 FILLER_35_53
*992 FILLER_35_57
*993 FILLER_35_69
*994 FILLER_35_81
*995 FILLER_35_93
*996 FILLER_36_109
*997 FILLER_36_121
*998 FILLER_36_133
*999 FILLER_36_139
*1000 FILLER_36_141
*1001 FILLER_36_153
*1002 FILLER_36_165
*1003 FILLER_36_177
*1004 FILLER_36_189
*1005 FILLER_36_195
*1006 FILLER_36_197
*1007 FILLER_36_209
*1008 FILLER_36_221
*1009 FILLER_36_233
*1010 FILLER_36_245
*1011 FILLER_36_251
*1012 FILLER_36_253
*1013 FILLER_36_26
*1014 FILLER_36_265
*1015 FILLER_36_277
*1016 FILLER_36_289
*1017 FILLER_36_29
*1018 FILLER_36_297
*1019 FILLER_36_3
*1020 FILLER_36_51
*1021 FILLER_36_63
*1022 FILLER_36_75
*1023 FILLER_36_83
*1024 FILLER_36_85
*1025 FILLER_36_97
*1026 FILLER_37_105
*1027 FILLER_37_111
*1028 FILLER_37_113
*1029 FILLER_37_12
*1030 FILLER_37_125
*1031 FILLER_37_137
*1032 FILLER_37_149
*1033 FILLER_37_161
*1034 FILLER_37_167
*1035 FILLER_37_169
*1036 FILLER_37_181
*1037 FILLER_37_193
*1038 FILLER_37_205
*1039 FILLER_37_217
*1040 FILLER_37_223
*1041 FILLER_37_225
*1042 FILLER_37_237
*1043 FILLER_37_249
*1044 FILLER_37_261
*1045 FILLER_37_273
*1046 FILLER_37_279
*1047 FILLER_37_281
*1048 FILLER_37_293
*1049 FILLER_37_3
*1050 FILLER_37_36
*1051 FILLER_37_53
*1052 FILLER_37_57
*1053 FILLER_37_69
*1054 FILLER_37_81
*1055 FILLER_37_93
*1056 FILLER_38_109
*1057 FILLER_38_121
*1058 FILLER_38_133
*1059 FILLER_38_139
*1060 FILLER_38_141
*1061 FILLER_38_153
*1062 FILLER_38_165
*1063 FILLER_38_177
*1064 FILLER_38_189
*1065 FILLER_38_195
*1066 FILLER_38_197
*1067 FILLER_38_209
*1068 FILLER_38_221
*1069 FILLER_38_233
*1070 FILLER_38_245
*1071 FILLER_38_251
*1072 FILLER_38_253
*1073 FILLER_38_26
*1074 FILLER_38_265
*1075 FILLER_38_277
*1076 FILLER_38_289
*1077 FILLER_38_29
*1078 FILLER_38_297
*1079 FILLER_38_3
*1080 FILLER_38_51
*1081 FILLER_38_63
*1082 FILLER_38_75
*1083 FILLER_38_83
*1084 FILLER_38_85
*1085 FILLER_38_97
*1086 FILLER_39_102
*1087 FILLER_39_110
*1088 FILLER_39_113
*1089 FILLER_39_125
*1090 FILLER_39_137
*1091 FILLER_39_149
*1092 FILLER_39_15
*1093 FILLER_39_161
*1094 FILLER_39_167
*1095 FILLER_39_169
*1096 FILLER_39_181
*1097 FILLER_39_193
*1098 FILLER_39_205
*1099 FILLER_39_217
*1100 FILLER_39_223
*1101 FILLER_39_225
*1102 FILLER_39_237
*1103 FILLER_39_249
*1104 FILLER_39_261
*1105 FILLER_39_273
*1106 FILLER_39_279
*1107 FILLER_39_281
*1108 FILLER_39_293
*1109 FILLER_39_3
*1110 FILLER_39_39
*1111 FILLER_39_52
*1112 FILLER_39_57
*1113 FILLER_39_66
*1114 FILLER_39_78
*1115 FILLER_39_90
*1116 FILLER_3_105
*1117 FILLER_3_111
*1118 FILLER_3_113
*1119 FILLER_3_125
*1120 FILLER_3_137
*1121 FILLER_3_149
*1122 FILLER_3_15
*1123 FILLER_3_161
*1124 FILLER_3_167
*1125 FILLER_3_169
*1126 FILLER_3_181
*1127 FILLER_3_193
*1128 FILLER_3_205
*1129 FILLER_3_217
*1130 FILLER_3_223
*1131 FILLER_3_225
*1132 FILLER_3_237
*1133 FILLER_3_249
*1134 FILLER_3_261
*1135 FILLER_3_27
*1136 FILLER_3_273
*1137 FILLER_3_279
*1138 FILLER_3_281
*1139 FILLER_3_293
*1140 FILLER_3_3
*1141 FILLER_3_39
*1142 FILLER_3_51
*1143 FILLER_3_55
*1144 FILLER_3_57
*1145 FILLER_3_69
*1146 FILLER_3_81
*1147 FILLER_3_93
*1148 FILLER_40_109
*1149 FILLER_40_121
*1150 FILLER_40_133
*1151 FILLER_40_139
*1152 FILLER_40_141
*1153 FILLER_40_153
*1154 FILLER_40_165
*1155 FILLER_40_177
*1156 FILLER_40_189
*1157 FILLER_40_195
*1158 FILLER_40_197
*1159 FILLER_40_209
*1160 FILLER_40_221
*1161 FILLER_40_233
*1162 FILLER_40_245
*1163 FILLER_40_251
*1164 FILLER_40_253
*1165 FILLER_40_26
*1166 FILLER_40_265
*1167 FILLER_40_277
*1168 FILLER_40_289
*1169 FILLER_40_29
*1170 FILLER_40_297
*1171 FILLER_40_3
*1172 FILLER_40_51
*1173 FILLER_40_62
*1174 FILLER_40_74
*1175 FILLER_40_82
*1176 FILLER_40_85
*1177 FILLER_40_97
*1178 FILLER_41_10
*1179 FILLER_41_103
*1180 FILLER_41_111
*1181 FILLER_41_113
*1182 FILLER_41_125
*1183 FILLER_41_137
*1184 FILLER_41_149
*1185 FILLER_41_161
*1186 FILLER_41_167
*1187 FILLER_41_169
*1188 FILLER_41_181
*1189 FILLER_41_193
*1190 FILLER_41_205
*1191 FILLER_41_217
*1192 FILLER_41_223
*1193 FILLER_41_225
*1194 FILLER_41_237
*1195 FILLER_41_249
*1196 FILLER_41_261
*1197 FILLER_41_273
*1198 FILLER_41_279
*1199 FILLER_41_281
*1200 FILLER_41_293
*1201 FILLER_41_3
*1202 FILLER_41_34
*1203 FILLER_41_51
*1204 FILLER_41_55
*1205 FILLER_41_57
*1206 FILLER_41_79
*1207 FILLER_41_91
*1208 FILLER_42_109
*1209 FILLER_42_121
*1210 FILLER_42_133
*1211 FILLER_42_139
*1212 FILLER_42_141
*1213 FILLER_42_153
*1214 FILLER_42_165
*1215 FILLER_42_177
*1216 FILLER_42_189
*1217 FILLER_42_195
*1218 FILLER_42_197
*1219 FILLER_42_209
*1220 FILLER_42_221
*1221 FILLER_42_233
*1222 FILLER_42_245
*1223 FILLER_42_251
*1224 FILLER_42_253
*1225 FILLER_42_26
*1226 FILLER_42_265
*1227 FILLER_42_277
*1228 FILLER_42_289
*1229 FILLER_42_29
*1230 FILLER_42_297
*1231 FILLER_42_3
*1232 FILLER_42_51
*1233 FILLER_42_68
*1234 FILLER_42_80
*1235 FILLER_42_85
*1236 FILLER_42_97
*1237 FILLER_43_103
*1238 FILLER_43_111
*1239 FILLER_43_113
*1240 FILLER_43_125
*1241 FILLER_43_137
*1242 FILLER_43_14
*1243 FILLER_43_149
*1244 FILLER_43_161
*1245 FILLER_43_167
*1246 FILLER_43_169
*1247 FILLER_43_18
*1248 FILLER_43_181
*1249 FILLER_43_193
*1250 FILLER_43_205
*1251 FILLER_43_217
*1252 FILLER_43_223
*1253 FILLER_43_225
*1254 FILLER_43_237
*1255 FILLER_43_249
*1256 FILLER_43_261
*1257 FILLER_43_273
*1258 FILLER_43_279
*1259 FILLER_43_281
*1260 FILLER_43_293
*1261 FILLER_43_3
*1262 FILLER_43_39
*1263 FILLER_43_51
*1264 FILLER_43_55
*1265 FILLER_43_57
*1266 FILLER_43_67
*1267 FILLER_43_79
*1268 FILLER_43_91
*1269 FILLER_44_109
*1270 FILLER_44_121
*1271 FILLER_44_133
*1272 FILLER_44_139
*1273 FILLER_44_141
*1274 FILLER_44_153
*1275 FILLER_44_165
*1276 FILLER_44_177
*1277 FILLER_44_189
*1278 FILLER_44_195
*1279 FILLER_44_197
*1280 FILLER_44_209
*1281 FILLER_44_221
*1282 FILLER_44_233
*1283 FILLER_44_245
*1284 FILLER_44_251
*1285 FILLER_44_253
*1286 FILLER_44_26
*1287 FILLER_44_265
*1288 FILLER_44_277
*1289 FILLER_44_289
*1290 FILLER_44_29
*1291 FILLER_44_297
*1292 FILLER_44_3
*1293 FILLER_44_51
*1294 FILLER_44_60
*1295 FILLER_44_72
*1296 FILLER_44_85
*1297 FILLER_44_97
*1298 FILLER_45_103
*1299 FILLER_45_111
*1300 FILLER_45_113
*1301 FILLER_45_12
*1302 FILLER_45_125
*1303 FILLER_45_137
*1304 FILLER_45_149
*1305 FILLER_45_161
*1306 FILLER_45_167
*1307 FILLER_45_169
*1308 FILLER_45_181
*1309 FILLER_45_193
*1310 FILLER_45_205
*1311 FILLER_45_217
*1312 FILLER_45_223
*1313 FILLER_45_225
*1314 FILLER_45_237
*1315 FILLER_45_249
*1316 FILLER_45_261
*1317 FILLER_45_273
*1318 FILLER_45_279
*1319 FILLER_45_281
*1320 FILLER_45_293
*1321 FILLER_45_3
*1322 FILLER_45_36
*1323 FILLER_45_49
*1324 FILLER_45_55
*1325 FILLER_45_57
*1326 FILLER_45_67
*1327 FILLER_45_79
*1328 FILLER_45_91
*1329 FILLER_46_109
*1330 FILLER_46_121
*1331 FILLER_46_133
*1332 FILLER_46_139
*1333 FILLER_46_141
*1334 FILLER_46_153
*1335 FILLER_46_165
*1336 FILLER_46_177
*1337 FILLER_46_189
*1338 FILLER_46_195
*1339 FILLER_46_197
*1340 FILLER_46_209
*1341 FILLER_46_221
*1342 FILLER_46_233
*1343 FILLER_46_245
*1344 FILLER_46_25
*1345 FILLER_46_251
*1346 FILLER_46_253
*1347 FILLER_46_265
*1348 FILLER_46_277
*1349 FILLER_46_289
*1350 FILLER_46_29
*1351 FILLER_46_297
*1352 FILLER_46_3
*1353 FILLER_46_51
*1354 FILLER_46_63
*1355 FILLER_46_75
*1356 FILLER_46_83
*1357 FILLER_46_85
*1358 FILLER_46_97
*1359 FILLER_47_10
*1360 FILLER_47_105
*1361 FILLER_47_111
*1362 FILLER_47_113
*1363 FILLER_47_125
*1364 FILLER_47_137
*1365 FILLER_47_149
*1366 FILLER_47_161
*1367 FILLER_47_167
*1368 FILLER_47_169
*1369 FILLER_47_181
*1370 FILLER_47_193
*1371 FILLER_47_205
*1372 FILLER_47_217
*1373 FILLER_47_223
*1374 FILLER_47_225
*1375 FILLER_47_237
*1376 FILLER_47_249
*1377 FILLER_47_261
*1378 FILLER_47_273
*1379 FILLER_47_279
*1380 FILLER_47_281
*1381 FILLER_47_293
*1382 FILLER_47_3
*1383 FILLER_47_34
*1384 FILLER_47_51
*1385 FILLER_47_55
*1386 FILLER_47_57
*1387 FILLER_47_69
*1388 FILLER_47_81
*1389 FILLER_47_93
*1390 FILLER_48_109
*1391 FILLER_48_121
*1392 FILLER_48_133
*1393 FILLER_48_139
*1394 FILLER_48_141
*1395 FILLER_48_153
*1396 FILLER_48_165
*1397 FILLER_48_177
*1398 FILLER_48_189
*1399 FILLER_48_195
*1400 FILLER_48_197
*1401 FILLER_48_209
*1402 FILLER_48_221
*1403 FILLER_48_233
*1404 FILLER_48_245
*1405 FILLER_48_251
*1406 FILLER_48_253
*1407 FILLER_48_26
*1408 FILLER_48_265
*1409 FILLER_48_277
*1410 FILLER_48_289
*1411 FILLER_48_29
*1412 FILLER_48_297
*1413 FILLER_48_3
*1414 FILLER_48_51
*1415 FILLER_48_63
*1416 FILLER_48_75
*1417 FILLER_48_83
*1418 FILLER_48_85
*1419 FILLER_48_97
*1420 FILLER_49_105
*1421 FILLER_49_111
*1422 FILLER_49_113
*1423 FILLER_49_125
*1424 FILLER_49_137
*1425 FILLER_49_149
*1426 FILLER_49_15
*1427 FILLER_49_161
*1428 FILLER_49_167
*1429 FILLER_49_169
*1430 FILLER_49_181
*1431 FILLER_49_193
*1432 FILLER_49_205
*1433 FILLER_49_217
*1434 FILLER_49_223
*1435 FILLER_49_225
*1436 FILLER_49_237
*1437 FILLER_49_249
*1438 FILLER_49_261
*1439 FILLER_49_273
*1440 FILLER_49_279
*1441 FILLER_49_281
*1442 FILLER_49_293
*1443 FILLER_49_3
*1444 FILLER_49_36
*1445 FILLER_49_48
*1446 FILLER_49_57
*1447 FILLER_49_69
*1448 FILLER_49_81
*1449 FILLER_49_93
*1450 FILLER_4_109
*1451 FILLER_4_121
*1452 FILLER_4_133
*1453 FILLER_4_139
*1454 FILLER_4_141
*1455 FILLER_4_15
*1456 FILLER_4_153
*1457 FILLER_4_165
*1458 FILLER_4_177
*1459 FILLER_4_189
*1460 FILLER_4_195
*1461 FILLER_4_197
*1462 FILLER_4_209
*1463 FILLER_4_221
*1464 FILLER_4_233
*1465 FILLER_4_245
*1466 FILLER_4_251
*1467 FILLER_4_253
*1468 FILLER_4_265
*1469 FILLER_4_27
*1470 FILLER_4_277
*1471 FILLER_4_289
*1472 FILLER_4_29
*1473 FILLER_4_297
*1474 FILLER_4_3
*1475 FILLER_4_41
*1476 FILLER_4_53
*1477 FILLER_4_65
*1478 FILLER_4_77
*1479 FILLER_4_83
*1480 FILLER_4_85
*1481 FILLER_4_97
*1482 FILLER_50_109
*1483 FILLER_50_121
*1484 FILLER_50_133
*1485 FILLER_50_139
*1486 FILLER_50_141
*1487 FILLER_50_153
*1488 FILLER_50_165
*1489 FILLER_50_177
*1490 FILLER_50_189
*1491 FILLER_50_195
*1492 FILLER_50_197
*1493 FILLER_50_209
*1494 FILLER_50_221
*1495 FILLER_50_233
*1496 FILLER_50_245
*1497 FILLER_50_25
*1498 FILLER_50_251
*1499 FILLER_50_253
*1500 FILLER_50_265
*1501 FILLER_50_277
*1502 FILLER_50_289
*1503 FILLER_50_29
*1504 FILLER_50_297
*1505 FILLER_50_3
*1506 FILLER_50_41
*1507 FILLER_50_53
*1508 FILLER_50_65
*1509 FILLER_50_77
*1510 FILLER_50_83
*1511 FILLER_50_85
*1512 FILLER_50_97
*1513 FILLER_51_105
*1514 FILLER_51_111
*1515 FILLER_51_113
*1516 FILLER_51_125
*1517 FILLER_51_137
*1518 FILLER_51_149
*1519 FILLER_51_161
*1520 FILLER_51_167
*1521 FILLER_51_169
*1522 FILLER_51_18
*1523 FILLER_51_181
*1524 FILLER_51_193
*1525 FILLER_51_205
*1526 FILLER_51_217
*1527 FILLER_51_223
*1528 FILLER_51_225
*1529 FILLER_51_237
*1530 FILLER_51_249
*1531 FILLER_51_261
*1532 FILLER_51_273
*1533 FILLER_51_279
*1534 FILLER_51_281
*1535 FILLER_51_293
*1536 FILLER_51_3
*1537 FILLER_51_30
*1538 FILLER_51_42
*1539 FILLER_51_54
*1540 FILLER_51_57
*1541 FILLER_51_69
*1542 FILLER_51_81
*1543 FILLER_51_93
*1544 FILLER_52_109
*1545 FILLER_52_121
*1546 FILLER_52_133
*1547 FILLER_52_139
*1548 FILLER_52_141
*1549 FILLER_52_153
*1550 FILLER_52_165
*1551 FILLER_52_177
*1552 FILLER_52_18
*1553 FILLER_52_189
*1554 FILLER_52_195
*1555 FILLER_52_197
*1556 FILLER_52_209
*1557 FILLER_52_221
*1558 FILLER_52_233
*1559 FILLER_52_245
*1560 FILLER_52_251
*1561 FILLER_52_253
*1562 FILLER_52_26
*1563 FILLER_52_265
*1564 FILLER_52_277
*1565 FILLER_52_289
*1566 FILLER_52_29
*1567 FILLER_52_297
*1568 FILLER_52_3
*1569 FILLER_52_41
*1570 FILLER_52_53
*1571 FILLER_52_65
*1572 FILLER_52_77
*1573 FILLER_52_83
*1574 FILLER_52_85
*1575 FILLER_52_97
*1576 FILLER_53_105
*1577 FILLER_53_111
*1578 FILLER_53_113
*1579 FILLER_53_125
*1580 FILLER_53_137
*1581 FILLER_53_149
*1582 FILLER_53_15
*1583 FILLER_53_161
*1584 FILLER_53_167