*SPEF "ieee 1481-1999"
*DESIGN "jmw95_top"
*DATE "11:11:11 Fri 11 11, 1111"
*VENDOR "OpenRCX"
*PROGRAM "Parallel Extraction"
*VERSION "1.0"
*DESIGN_FLOW "NAME_SCOPE LOCAL" "PIN_CAP NONE"
*DIVIDER /
*DELIMITER :
*BUS_DELIMITER []
*T_UNIT 1 NS
*C_UNIT 1 PF
*R_UNIT 1 OHM
*L_UNIT 1 HENRY

*NAME_MAP
*1 io_in[0]
*2 io_in[1]
*3 io_in[2]
*4 io_in[3]
*5 io_in[4]
*6 io_in[5]
*7 io_in[6]
*8 io_in[7]
*9 io_out[0]
*10 io_out[1]
*11 io_out[2]
*12 net5
*13 net6
*14 net7
*15 net8
*16 net9
*19 _0000_
*20 _0001_
*21 _0002_
*22 _0003_
*23 _0004_
*24 _0005_
*25 _0006_
*26 _0007_
*27 _0008_
*28 _0009_
*29 _0010_
*30 _0011_
*31 _0012_
*32 _0013_
*33 _0014_
*34 _0015_
*35 _0016_
*36 _0017_
*37 _0018_
*38 _0019_
*39 _0020_
*40 _0021_
*41 _0022_
*42 _0023_
*43 _0024_
*44 _0025_
*45 _0026_
*46 _0027_
*47 _0028_
*48 _0029_
*49 _0030_
*50 _0031_
*51 _0032_
*52 _0033_
*53 _0034_
*54 _0035_
*55 _0036_
*56 _0037_
*57 _0038_
*58 _0039_
*59 _0040_
*60 _0041_
*61 _0042_
*62 _0043_
*63 _0044_
*64 _0045_
*65 _0046_
*66 _0047_
*67 _0048_
*68 _0049_
*69 _0050_
*70 _0051_
*71 _0052_
*72 _0053_
*73 _0054_
*74 _0055_
*75 _0056_
*76 _0057_
*77 _0058_
*78 _0059_
*79 _0060_
*80 _0061_
*81 _0062_
*82 _0063_
*83 _0064_
*84 _0065_
*85 _0066_
*86 _0067_
*87 _0068_
*88 _0069_
*89 _0070_
*90 _0071_
*91 _0072_
*92 _0073_
*93 _0074_
*94 _0075_
*95 _0076_
*96 _0077_
*97 _0078_
*98 _0079_
*99 _0080_
*100 _0081_
*101 _0082_
*102 _0083_
*103 _0084_
*104 _0085_
*105 _0086_
*106 _0087_
*107 _0088_
*108 _0089_
*109 _0090_
*110 _0091_
*111 _0092_
*112 _0093_
*113 _0094_
*114 _0095_
*115 _0096_
*116 _0097_
*117 _0098_
*118 _0099_
*119 _0100_
*120 _0101_
*121 _0102_
*122 _0103_
*123 _0104_
*124 _0105_
*125 _0106_
*126 _0107_
*127 _0108_
*128 _0109_
*129 _0110_
*130 _0111_
*131 _0112_
*132 _0113_
*133 _0114_
*134 _0115_
*135 _0116_
*136 _0117_
*137 _0118_
*138 _0119_
*139 _0120_
*140 _0121_
*141 _0122_
*142 _0123_
*143 _0124_
*144 _0125_
*145 _0126_
*146 _0127_
*147 _0128_
*148 _0129_
*149 _0130_
*150 _0131_
*151 _0132_
*152 _0133_
*153 _0134_
*154 _0135_
*155 _0136_
*156 _0137_
*157 _0138_
*158 _0139_
*159 _0140_
*160 _0141_
*161 _0142_
*162 _0143_
*163 _0144_
*164 _0145_
*165 _0146_
*166 _0147_
*167 _0148_
*168 _0149_
*169 _0150_
*170 _0151_
*171 _0152_
*172 _0153_
*173 _0154_
*174 _0155_
*175 _0156_
*176 _0157_
*177 _0158_
*178 _0159_
*179 _0160_
*180 _0161_
*181 _0162_
*182 _0163_
*183 _0164_
*184 _0165_
*185 _0166_
*186 _0167_
*187 _0168_
*188 _0169_
*189 _0170_
*190 _0171_
*191 _0172_
*192 _0173_
*193 _0174_
*194 _0175_
*195 _0176_
*196 _0177_
*197 _0178_
*198 _0179_
*199 _0180_
*200 _0181_
*201 _0182_
*202 _0183_
*203 _0184_
*204 _0185_
*205 _0186_
*206 _0187_
*207 _0188_
*208 _0189_
*209 _0190_
*210 _0191_
*211 _0192_
*212 _0193_
*213 _0194_
*214 _0195_
*215 _0196_
*216 _0197_
*217 _0198_
*218 _0199_
*219 _0200_
*220 _0201_
*221 _0202_
*222 _0203_
*223 _0204_
*224 _0205_
*225 _0206_
*226 _0207_
*227 _0208_
*228 _0209_
*229 _0210_
*230 _0211_
*231 _0212_
*232 _0213_
*233 _0214_
*234 _0215_
*235 _0216_
*236 _0217_
*237 _0218_
*238 _0219_
*239 _0220_
*240 _0221_
*241 _0222_
*242 _0223_
*243 _0224_
*244 _0225_
*245 _0226_
*246 _0227_
*247 _0228_
*248 _0229_
*249 _0230_
*250 _0231_
*251 _0232_
*252 _0233_
*253 _0234_
*254 _0235_
*255 _0236_
*256 _0237_
*257 _0238_
*258 _0239_
*259 _0240_
*260 _0241_
*261 _0242_
*262 _0243_
*263 _0244_
*264 _0245_
*265 _0246_
*266 _0247_
*267 _0248_
*268 _0249_
*269 _0250_
*270 _0251_
*271 _0252_
*272 _0253_
*273 _0254_
*274 _0255_
*275 _0256_
*276 _0257_
*277 _0258_
*278 _0259_
*279 _0260_
*280 _0261_
*281 _0262_
*282 _0263_
*283 _0264_
*284 _0265_
*285 _0266_
*286 _0267_
*287 _0268_
*288 _0269_
*289 _0270_
*290 _0271_
*291 _0272_
*292 _0273_
*293 _0274_
*294 _0275_
*295 _0276_
*296 _0277_
*297 _0278_
*298 _0279_
*299 _0280_
*300 _0281_
*301 _0282_
*302 _0283_
*303 _0284_
*304 _0285_
*305 _0286_
*306 _0287_
*307 _0288_
*308 _0289_
*309 _0290_
*310 _0291_
*311 _0292_
*312 _0293_
*313 _0294_
*314 _0295_
*315 _0296_
*316 _0297_
*317 _0298_
*318 _0299_
*319 _0300_
*320 _0301_
*321 _0302_
*322 _0303_
*323 _0304_
*324 _0305_
*325 _0306_
*326 _0307_
*327 _0308_
*328 _0309_
*329 _0310_
*330 _0311_
*331 _0312_
*332 _0313_
*333 _0314_
*334 _0315_
*335 _0316_
*336 _0317_
*337 _0318_
*338 _0319_
*339 _0320_
*340 _0321_
*341 _0322_
*342 _0323_
*343 _0324_
*344 _0325_
*345 _0326_
*346 _0327_
*347 _0328_
*348 _0329_
*349 _0330_
*350 _0331_
*351 _0332_
*352 _0333_
*353 _0334_
*354 _0335_
*355 _0336_
*356 _0337_
*357 _0338_
*358 _0339_
*359 _0340_
*360 _0341_
*361 _0342_
*362 _0343_
*363 _0344_
*364 _0345_
*365 _0346_
*366 _0347_
*367 _0348_
*368 _0349_
*369 _0350_
*370 _0351_
*371 _0352_
*372 _0353_
*373 _0354_
*374 _0355_
*375 _0356_
*376 _0357_
*377 _0358_
*378 _0359_
*379 _0360_
*380 _0361_
*381 _0362_
*382 _0363_
*383 _0364_
*384 _0365_
*385 _0366_
*386 _0367_
*387 _0368_
*388 _0369_
*389 _0370_
*390 _0371_
*391 _0372_
*392 _0373_
*393 _0374_
*394 _0375_
*395 _0376_
*396 _0377_
*397 _0378_
*398 _0379_
*399 _0380_
*400 _0381_
*401 _0382_
*402 _0383_
*403 _0384_
*404 _0385_
*405 _0386_
*406 _0387_
*407 _0388_
*408 _0389_
*409 _0390_
*410 _0391_
*411 _0392_
*412 _0393_
*413 _0394_
*414 _0395_
*415 _0396_
*416 _0397_
*417 _0398_
*418 _0399_
*419 _0400_
*420 _0401_
*421 _0402_
*422 _0403_
*423 _0404_
*424 _0405_
*425 _0406_
*426 _0407_
*427 _0408_
*428 _0409_
*429 _0410_
*430 _0411_
*431 _0412_
*432 _0413_
*433 _0414_
*434 _0415_
*435 _0416_
*436 _0417_
*437 _0418_
*438 _0419_
*439 _0420_
*440 _0421_
*441 _0422_
*442 _0423_
*443 _0424_
*444 _0425_
*445 _0426_
*446 _0427_
*447 _0428_
*448 _0429_
*449 _0430_
*450 _0431_
*451 _0432_
*452 _0433_
*453 _0434_
*454 _0435_
*455 _0436_
*456 _0437_
*457 _0438_
*458 _0439_
*459 _0440_
*460 _0441_
*461 _0442_
*462 _0443_
*463 _0444_
*464 _0445_
*465 _0446_
*466 _0447_
*467 _0448_
*468 _0449_
*469 _0450_
*470 _0451_
*471 _0452_
*472 _0453_
*473 _0454_
*474 _0455_
*475 _0456_
*476 _0457_
*477 _0458_
*478 _0459_
*479 _0460_
*480 _0461_
*481 _0462_
*482 _0463_
*483 _0464_
*484 _0465_
*485 _0466_
*486 _0467_
*487 _0468_
*488 _0469_
*489 _0470_
*490 _0471_
*491 _0472_
*492 _0473_
*493 _0474_
*494 _0475_
*495 _0476_
*496 _0477_
*497 _0478_
*498 _0479_
*499 _0480_
*500 _0481_
*501 _0482_
*502 _0483_
*503 _0484_
*504 _0485_
*505 _0486_
*506 _0487_
*507 _0488_
*508 _0489_
*509 _0490_
*510 _0491_
*511 _0492_
*512 _0493_
*513 _0494_
*514 _0495_
*515 _0496_
*516 _0497_
*517 _0498_
*518 _0499_
*519 _0500_
*520 _0501_
*521 _0502_
*522 _0503_
*523 _0504_
*524 _0505_
*525 _0506_
*526 _0507_
*527 _0508_
*528 _0509_
*529 _0510_
*530 _0511_
*531 _0512_
*532 _0513_
*533 _0514_
*534 _0515_
*535 _0516_
*536 _0517_
*537 _0518_
*538 _0519_
*539 _0520_
*540 _0521_
*541 _0522_
*542 _0523_
*543 _0524_
*544 _0525_
*545 _0526_
*546 _0527_
*547 _0528_
*548 _0529_
*549 _0530_
*550 _0531_
*551 _0532_
*552 _0533_
*553 _0534_
*554 _0535_
*555 _0536_
*556 _0537_
*557 _0538_
*558 _0539_
*559 _0540_
*560 _0541_
*561 _0542_
*562 _0543_
*563 _0544_
*564 _0545_
*565 _0546_
*566 _0547_
*567 _0548_
*568 _0549_
*569 _0550_
*570 _0551_
*571 _0552_
*572 _0553_
*573 _0554_
*574 _0555_
*575 _0556_
*576 _0557_
*577 _0558_
*578 _0559_
*579 _0560_
*580 _0561_
*581 _0562_
*582 _0563_
*583 _0564_
*584 _0565_
*585 _0566_
*586 _0567_
*587 _0568_
*588 _0569_
*589 _0570_
*590 _0571_
*591 _0572_
*592 _0573_
*593 _0574_
*594 _0575_
*595 _0576_
*596 _0577_
*597 _0578_
*598 _0579_
*599 _0580_
*600 _0581_
*601 _0582_
*602 _0583_
*603 _0584_
*604 _0585_
*605 _0586_
*606 _0587_
*607 _0588_
*608 _0589_
*609 _0590_
*610 _0591_
*611 _0592_
*612 _0593_
*613 _0594_
*614 _0595_
*615 _0596_
*616 _0597_
*617 _0598_
*618 _0599_
*619 _0600_
*620 _0601_
*621 _0602_
*622 _0603_
*623 _0604_
*624 _0605_
*625 _0606_
*626 _0607_
*627 _0608_
*628 _0609_
*629 _0610_
*630 _0611_
*631 _0612_
*632 _0613_
*633 _0614_
*634 _0615_
*635 _0616_
*636 _0617_
*637 _0618_
*638 _0619_
*639 _0620_
*640 _0621_
*641 _0622_
*642 _0623_
*643 _0624_
*644 _0625_
*645 _0626_
*646 _0627_
*647 _0628_
*648 _0629_
*649 _0630_
*650 _0631_
*651 _0632_
*652 _0633_
*653 _0634_
*654 _0635_
*655 _0636_
*656 _0637_
*657 _0638_
*658 _0639_
*659 _0640_
*660 _0641_
*661 _0642_
*662 _0643_
*663 _0644_
*664 _0645_
*665 _0646_
*666 _0647_
*667 _0648_
*668 _0649_
*669 _0650_
*670 _0651_
*671 _0652_
*672 _0653_
*673 _0654_
*674 _0655_
*675 _0656_
*676 _0657_
*677 _0658_
*678 _0659_
*679 _0660_
*680 _0661_
*681 _0662_
*682 _0663_
*683 _0664_
*684 _0665_
*685 _0666_
*686 _0667_
*687 _0668_
*688 _0669_
*689 _0670_
*690 _0671_
*691 _0672_
*692 _0673_
*693 _0674_
*694 _0675_
*695 _0676_
*696 _0677_
*697 _0678_
*698 _0679_
*699 _0680_
*700 _0681_
*701 _0682_
*702 _0683_
*703 _0684_
*704 _0685_
*705 _0686_
*706 _0687_
*707 _0688_
*708 _0689_
*709 _0690_
*710 _0691_
*711 _0692_
*712 _0693_
*713 _0694_
*714 _0695_
*715 _0696_
*716 _0697_
*717 _0698_
*718 _0699_
*719 _0700_
*720 _0701_
*721 _0702_
*722 _0703_
*723 _0704_
*724 _0705_
*725 _0706_
*726 _0707_
*727 _0708_
*728 _0709_
*729 _0710_
*730 _0711_
*731 _0712_
*732 _0713_
*733 _0714_
*734 _0715_
*735 _0716_
*736 _0717_
*737 _0718_
*738 _0719_
*739 _0720_
*740 _0721_
*741 _0722_
*742 _0723_
*743 _0724_
*744 _0725_
*745 _0726_
*746 _0727_
*747 _0728_
*748 _0729_
*749 _0730_
*750 _0731_
*751 _0732_
*752 _0733_
*753 _0734_
*754 _0735_
*755 _0736_
*756 _0737_
*757 _0738_
*758 _0739_
*759 _0740_
*760 _0741_
*761 _0742_
*762 _0743_
*763 _0744_
*764 _0745_
*765 _0746_
*766 _0747_
*767 _0748_
*768 _0749_
*769 _0750_
*770 _0751_
*771 _0752_
*772 _0753_
*773 _0754_
*774 _0755_
*775 _0756_
*776 _0757_
*777 _0758_
*778 _0759_
*779 _0760_
*780 _0761_
*781 _0762_
*782 _0763_
*783 _0764_
*784 _0765_
*785 _0766_
*786 _0767_
*787 _0768_
*788 _0769_
*789 _0770_
*790 _0771_
*791 _0772_
*792 _0773_
*793 _0774_
*794 _0775_
*795 _0776_
*796 _0777_
*797 _0778_
*798 _0779_
*799 _0780_
*800 _0781_
*801 _0782_
*802 _0783_
*803 _0784_
*804 _0785_
*805 _0786_
*806 _0787_
*807 _0788_
*808 _0789_
*809 _0790_
*810 _0791_
*811 _0792_
*812 _0793_
*813 _0794_
*814 _0795_
*815 _0796_
*816 _0797_
*817 _0798_
*818 _0799_
*819 _0800_
*820 _0801_
*821 _0802_
*822 _0803_
*823 _0804_
*824 _0805_
*825 _0806_
*826 _0807_
*827 _0808_
*828 _0809_
*829 _0810_
*830 _0811_
*831 _0812_
*832 _0813_
*833 _0814_
*834 _0815_
*835 _0816_
*836 _0817_
*837 _0818_
*838 _0819_
*839 _0820_
*840 _0821_
*841 _0822_
*842 _0823_
*843 _0824_
*844 _0825_
*845 _0826_
*846 _0827_
*847 _0828_
*848 _0829_
*849 _0830_
*850 _0831_
*851 _0832_
*852 _0833_
*853 _0834_
*854 _0835_
*855 _0836_
*856 _0837_
*857 _0838_
*858 _0839_
*859 _0840_
*860 _0841_
*861 _0842_
*862 _0843_
*863 _0844_
*864 _0845_
*865 _0846_
*866 _0847_
*867 _0848_
*868 _0849_
*869 _0850_
*870 _0851_
*871 _0852_
*872 _0853_
*873 _0854_
*874 _0855_
*875 _0856_
*876 _0857_
*877 _0858_
*878 _0859_
*879 _0860_
*880 _0861_
*881 _0862_
*882 _0863_
*883 _0864_
*884 _0865_
*885 _0866_
*886 _0867_
*887 _0868_
*888 _0869_
*889 _0870_
*890 _0871_
*891 _0872_
*892 _0873_
*893 _0874_
*894 _0875_
*895 _0876_
*896 _0877_
*897 _0878_
*898 _0879_
*899 _0880_
*900 _0881_
*901 _0882_
*902 _0883_
*903 _0884_
*904 _0885_
*905 _0886_
*906 _0887_
*907 _0888_
*908 _0889_
*909 _0890_
*910 _0891_
*911 _0892_
*912 _0893_
*913 _0894_
*914 _0895_
*915 _0896_
*916 _0897_
*917 _0898_
*918 _0899_
*919 _0900_
*920 _0901_
*921 _0902_
*922 _0903_
*923 _0904_
*924 _0905_
*925 _0906_
*926 _0907_
*927 _0908_
*928 _0909_
*929 _0910_
*930 _0911_
*931 _0912_
*932 _0913_
*933 _0914_
*934 _0915_
*935 _0916_
*936 _0917_
*937 _0918_
*938 _0919_
*939 _0920_
*940 _0921_
*941 _0922_
*942 _0923_
*943 _0924_
*944 _0925_
*945 _0926_
*946 _0927_
*947 _0928_
*948 _0929_
*949 _0930_
*950 _0931_
*951 _0932_
*952 _0933_
*953 _0934_
*954 _0935_
*955 _0936_
*956 _0937_
*957 _0938_
*958 _0939_
*959 _0940_
*960 _0941_
*961 _0942_
*962 _0943_
*963 _0944_
*964 _0945_
*965 _0946_
*966 _0947_
*967 _0948_
*968 _0949_
*969 _0950_
*970 _0951_
*971 _0952_
*972 _0953_
*973 _0954_
*974 _0955_
*975 _0956_
*976 _0957_
*977 _0958_
*978 _0959_
*979 _0960_
*980 _0961_
*981 _0962_
*982 _0963_
*983 _0964_
*984 _0965_
*985 _0966_
*986 _0967_
*987 _0968_
*988 _0969_
*989 _0970_
*990 _0971_
*991 _0972_
*992 _0973_
*993 _0974_
*994 _0975_
*995 _0976_
*996 _0977_
*997 _0978_
*998 _0979_
*999 _0980_
*1000 _0981_
*1001 _0982_
*1002 _0983_
*1003 _0984_
*1004 _0985_
*1005 _0986_
*1006 _0987_
*1007 _0988_
*1008 _0989_
*1009 _0990_
*1010 _0991_
*1011 _0992_
*1012 _0993_
*1013 _0994_
*1014 _0995_
*1015 _0996_
*1016 _0997_
*1017 _0998_
*1018 _0999_
*1019 _1000_
*1020 _1001_
*1021 _1002_
*1022 _1003_
*1023 _1004_
*1024 _1005_
*1025 _1006_
*1026 _1007_
*1027 _1008_
*1028 _1009_
*1029 _1010_
*1030 _1011_
*1031 _1012_
*1032 _1013_
*1033 _1014_
*1034 _1015_
*1035 _1016_
*1036 _1017_
*1037 _1018_
*1038 _1019_
*1039 _1020_
*1040 _1021_
*1041 _1022_
*1042 _1023_
*1043 _1024_
*1044 _1025_
*1045 _1026_
*1046 _1027_
*1047 _1028_
*1048 _1029_
*1049 bit_sampler\.bit_o
*1050 bit_sampler\.count_reg\[0\]
*1051 bit_sampler\.count_reg\[10\]
*1052 bit_sampler\.count_reg\[1\]
*1053 bit_sampler\.count_reg\[2\]
*1054 bit_sampler\.count_reg\[3\]
*1055 bit_sampler\.count_reg\[4\]
*1056 bit_sampler\.count_reg\[5\]
*1057 bit_sampler\.count_reg\[6\]
*1058 bit_sampler\.count_reg\[7\]
*1059 bit_sampler\.count_reg\[8\]
*1060 bit_sampler\.count_reg\[9\]
*1061 bit_sampler\.data_i
*1062 bit_sampler\.last_data_reg
*1063 bit_sampler\.valid_o
*1064 clknet_0_io_in[0]
*1065 clknet_4_0_0_io_in[0]
*1066 clknet_4_10_0_io_in[0]
*1067 clknet_4_11_0_io_in[0]
*1068 clknet_4_12_0_io_in[0]
*1069 clknet_4_13_0_io_in[0]
*1070 clknet_4_14_0_io_in[0]
*1071 clknet_4_15_0_io_in[0]
*1072 clknet_4_1_0_io_in[0]
*1073 clknet_4_2_0_io_in[0]
*1074 clknet_4_3_0_io_in[0]
*1075 clknet_4_4_0_io_in[0]
*1076 clknet_4_5_0_io_in[0]
*1077 clknet_4_6_0_io_in[0]
*1078 clknet_4_7_0_io_in[0]
*1079 clknet_4_8_0_io_in[0]
*1080 clknet_4_9_0_io_in[0]
*1081 decoder\.data_reg\[0\]
*1082 decoder\.data_reg\[1\]
*1083 decoder\.data_reg\[2\]
*1084 decoder\.data_reg\[3\]
*1085 decoder\.data_reg\[4\]
*1086 decoder\.state_reg
*1087 digits\.day\[0\]
*1088 digits\.day\[1\]
*1089 digits\.day\[2\]
*1090 digits\.day\[3\]
*1091 digits\.day\[4\]
*1092 digits\.day_bcd\.bcd\[0\]
*1093 digits\.day_bcd\.bcd\[1\]
*1094 digits\.day_bcd\.bcd\[2\]
*1095 digits\.day_bcd\.bcd\[3\]
*1096 digits\.day_bcd\.bcd\[4\]
*1097 digits\.day_bcd\.bcd\[5\]
*1098 digits\.day_counter\.max_i\[0\]
*1099 digits\.day_counter\.max_i\[1\]
*1100 digits\.days_in_month\.month_i\[0\]
*1101 digits\.days_in_month\.month_i\[1\]
*1102 digits\.days_in_month\.month_i\[2\]
*1103 digits\.days_in_month\.month_i\[3\]
*1104 digits\.hour\[0\]
*1105 digits\.hour\[1\]
*1106 digits\.hour\[2\]
*1107 digits\.hour\[3\]
*1108 digits\.hour\[4\]
*1109 digits\.hour_bcd\.bcd\[0\]
*1110 digits\.hour_bcd\.bcd\[1\]
*1111 digits\.hour_bcd\.bcd\[2\]
*1112 digits\.hour_bcd\.bcd\[3\]
*1113 digits\.hour_bcd\.bcd\[4\]
*1114 digits\.hour_bcd\.bcd\[5\]
*1115 digits\.minute\[0\]
*1116 digits\.minute\[1\]
*1117 digits\.minute\[2\]
*1118 digits\.minute\[3\]
*1119 digits\.minute\[4\]
*1120 digits\.minute\[5\]
*1121 digits\.minute_bcd\.bcd\[0\]
*1122 digits\.minute_bcd\.bcd\[1\]
*1123 digits\.minute_bcd\.bcd\[2\]
*1124 digits\.minute_bcd\.bcd\[3\]
*1125 digits\.minute_bcd\.bcd\[4\]
*1126 digits\.minute_bcd\.bcd\[5\]
*1127 digits\.minute_bcd\.bcd\[6\]
*1128 digits\.month_bcd\.bcd\[0\]
*1129 digits\.month_bcd\.bcd\[1\]
*1130 digits\.month_bcd\.bcd\[2\]
*1131 digits\.month_bcd\.bcd\[3\]
*1132 digits\.month_bcd\.bcd\[4\]
*1133 digits\.second\[0\]
*1134 digits\.second\[1\]
*1135 digits\.second\[2\]
*1136 digits\.second\[3\]
*1137 digits\.second\[4\]
*1138 digits\.second\[5\]
*1139 digits\.year\[0\]
*1140 digits\.year\[1\]
*1141 digits\.year\[2\]
*1142 digits\.year\[3\]
*1143 digits\.year\[4\]
*1144 digits\.year\[5\]
*1145 digits\.year\[6\]
*1146 digits\.year_bcd\.bcd\[0\]
*1147 digits\.year_bcd\.bcd\[1\]
*1148 digits\.year_bcd\.bcd\[2\]
*1149 digits\.year_bcd\.bcd\[3\]
*1150 digits\.year_bcd\.bcd\[4\]
*1151 digits\.year_bcd\.bcd\[5\]
*1152 digits\.year_bcd\.bcd\[6\]
*1153 digits\.year_bcd\.bcd\[7\]
*1154 net1
*1155 net2
*1156 net3
*1157 net4
*1158 pulse_delay\.data_o
*1159 pulse_delay\.state_reg\[0\]
*1160 second_counter\.count_reg\[0\]
*1161 second_counter\.count_reg\[10\]
*1162 second_counter\.count_reg\[11\]
*1163 second_counter\.count_reg\[12\]
*1164 second_counter\.count_reg\[13\]
*1165 second_counter\.count_reg\[1\]
*1166 second_counter\.count_reg\[2\]
*1167 second_counter\.count_reg\[3\]
*1168 second_counter\.count_reg\[4\]
*1169 second_counter\.count_reg\[5\]
*1170 second_counter\.count_reg\[6\]
*1171 second_counter\.count_reg\[7\]
*1172 second_counter\.count_reg\[8\]
*1173 second_counter\.count_reg\[9\]
*1174 shift_reg\.count_reg\[0\]
*1175 shift_reg\.count_reg\[1\]
*1176 shift_reg\.count_reg\[2\]
*1177 shift_reg\.count_reg\[3\]
*1178 shift_reg\.count_reg\[4\]
*1179 shift_reg\.count_reg\[5\]
*1180 shift_reg\.count_reg\[6\]
*1181 shift_reg\.data_o
*1182 shift_reg\.idle_reg
*1183 shift_reg\.latch_o
*1184 shift_reg\.sclk_o
*1185 time_date_decoder\.a_shift_reg\[36\]
*1186 time_date_decoder\.a_shift_reg\[37\]
*1187 time_date_decoder\.a_shift_reg\[38\]
*1188 time_date_decoder\.a_shift_reg\[52\]
*1189 time_date_decoder\.a_shift_reg\[53\]
*1190 time_date_decoder\.a_shift_reg\[54\]
*1191 time_date_decoder\.a_shift_reg\[55\]
*1192 time_date_decoder\.a_shift_reg\[56\]
*1193 time_date_decoder\.a_shift_reg\[57\]
*1194 time_date_decoder\.a_shift_reg\[58\]
*1195 time_date_decoder\.a_shift_reg\[59\]
*1196 time_date_decoder\.b_shift_reg\[54\]
*1197 time_date_decoder\.b_shift_reg\[55\]
*1198 time_date_decoder\.b_shift_reg\[56\]
*1199 time_date_decoder\.b_shift_reg\[57\]
*1200 time_date_decoder\.b_shift_reg\[58\]
*1201 time_date_decoder\.b_shift_reg\[59\]
*1202 time_date_decoder\.valid_reg
*1203 ANTENNA_1
*1204 ANTENNA_10
*1205 ANTENNA_11
*1206 ANTENNA_12
*1207 ANTENNA_13
*1208 ANTENNA_14
*1209 ANTENNA_15
*1210 ANTENNA_16
*1211 ANTENNA_17
*1212 ANTENNA_18
*1213 ANTENNA_19
*1214 ANTENNA_2
*1215 ANTENNA_20
*1216 ANTENNA_21
*1217 ANTENNA_22
*1218 ANTENNA_23
*1219 ANTENNA_24
*1220 ANTENNA_25
*1221 ANTENNA_26
*1222 ANTENNA_27
*1223 ANTENNA_28
*1224 ANTENNA_29
*1225 ANTENNA_3
*1226 ANTENNA_30
*1227 ANTENNA_31
*1228 ANTENNA_32
*1229 ANTENNA_33
*1230 ANTENNA_34
*1231 ANTENNA_35
*1232 ANTENNA_36
*1233 ANTENNA_37
*1234 ANTENNA_38
*1235 ANTENNA_39
*1236 ANTENNA_4
*1237 ANTENNA_40
*1238 ANTENNA_41
*1239 ANTENNA_42
*1240 ANTENNA_43
*1241 ANTENNA_44
*1242 ANTENNA_45
*1243 ANTENNA_5
*1244 ANTENNA_6
*1245 ANTENNA_7
*1246 ANTENNA_8
*1247 ANTENNA_9
*1248 FILLER_0_103
*1249 FILLER_0_107
*1250 FILLER_0_111
*1251 FILLER_0_113
*1252 FILLER_0_119
*1253 FILLER_0_138
*1254 FILLER_0_141
*1255 FILLER_0_159
*1256 FILLER_0_167
*1257 FILLER_0_169
*1258 FILLER_0_181
*1259 FILLER_0_190
*1260 FILLER_0_197
*1261 FILLER_0_204
*1262 FILLER_0_216
*1263 FILLER_0_22
*1264 FILLER_0_225
*1265 FILLER_0_237
*1266 FILLER_0_249
*1267 FILLER_0_253
*1268 FILLER_0_265
*1269 FILLER_0_277
*1270 FILLER_0_281
*1271 FILLER_0_29
*1272 FILLER_0_293
*1273 FILLER_0_3
*1274 FILLER_0_47
*1275 FILLER_0_54
*1276 FILLER_0_57
*1277 FILLER_0_76
*1278 FILLER_0_80
*1279 FILLER_0_85
*1280 FILLER_10_107
*1281 FILLER_10_119
*1282 FILLER_10_138
*1283 FILLER_10_141
*1284 FILLER_10_147
*1285 FILLER_10_151
*1286 FILLER_10_159
*1287 FILLER_10_172
*1288 FILLER_10_180
*1289 FILLER_10_186
*1290 FILLER_10_194
*1291 FILLER_10_197
*1292 FILLER_10_206
*1293 FILLER_10_21
*1294 FILLER_10_213
*1295 FILLER_10_239
*1296 FILLER_10_243
*1297 FILLER_10_250
*1298 FILLER_10_253
*1299 FILLER_10_27
*1300 FILLER_10_270
*1301 FILLER_10_282
*1302 FILLER_10_29
*1303 FILLER_10_296
*1304 FILLER_10_3
*1305 FILLER_10_41
*1306 FILLER_10_59
*1307 FILLER_10_82
*1308 FILLER_10_85
*1309 FILLER_11_110
*1310 FILLER_11_113
*1311 FILLER_11_132
*1312 FILLER_11_138
*1313 FILLER_11_142
*1314 FILLER_11_151
*1315 FILLER_11_155
*1316 FILLER_11_159
*1317 FILLER_11_166
*1318 FILLER_11_169
*1319 FILLER_11_174
*1320 FILLER_11_178
*1321 FILLER_11_187
*1322 FILLER_11_197
*1323 FILLER_11_205
*1324 FILLER_11_21
*1325 FILLER_11_217
*1326 FILLER_11_223
*1327 FILLER_11_225
*1328 FILLER_11_240
*1329 FILLER_11_254
*1330 FILLER_11_263
*1331 FILLER_11_27
*1332 FILLER_11_272
*1333 FILLER_11_281
*1334 FILLER_11_297
*1335 FILLER_11_3
*1336 FILLER_11_30
*1337 FILLER_11_51
*1338 FILLER_11_55
*1339 FILLER_11_57
*1340 FILLER_11_69
*1341 FILLER_11_89
*1342 FILLER_12_121
*1343 FILLER_12_136
*1344 FILLER_12_141
*1345 FILLER_12_152
*1346 FILLER_12_159
*1347 FILLER_12_168
*1348 FILLER_12_176
*1349 FILLER_12_186
*1350 FILLER_12_194
*1351 FILLER_12_197
*1352 FILLER_12_208
*1353 FILLER_12_212
*1354 FILLER_12_22
*1355 FILLER_12_226
*1356 FILLER_12_235
*1357 FILLER_12_250
*1358 FILLER_12_253
*1359 FILLER_12_259
*1360 FILLER_12_26
*1361 FILLER_12_265
*1362 FILLER_12_275
*1363 FILLER_12_287
*1364 FILLER_12_29
*1365 FILLER_12_296
*1366 FILLER_12_3
*1367 FILLER_12_48
*1368 FILLER_12_53
*1369 FILLER_12_72
*1370 FILLER_12_85
*1371 FILLER_12_98
*1372 FILLER_13_103
*1373 FILLER_13_111
*1374 FILLER_13_113
*1375 FILLER_13_118
*1376 FILLER_13_139
*1377 FILLER_13_145
*1378 FILLER_13_149
*1379 FILLER_13_161
*1380 FILLER_13_167
*1381 FILLER_13_169
*1382 FILLER_13_177
*1383 FILLER_13_185
*1384 FILLER_13_192
*1385 FILLER_13_198
*1386 FILLER_13_204
*1387 FILLER_13_21
*1388 FILLER_13_213
*1389 FILLER_13_222
*1390 FILLER_13_225
*1391 FILLER_13_234
*1392 FILLER_13_243
*1393 FILLER_13_251
*1394 FILLER_13_264
*1395 FILLER_13_270
*1396 FILLER_13_277
*1397 FILLER_13_281
*1398 FILLER_13_289
*1399 FILLER_13_29
*1400 FILLER_13_296
*1401 FILLER_13_3
*1402 FILLER_13_48
*1403 FILLER_13_57
*1404 FILLER_13_70
*1405 FILLER_13_91
*1406 FILLER_14_116
*1407 FILLER_14_120
*1408 FILLER_14_138
*1409 FILLER_14_141
*1410 FILLER_14_147
*1411 FILLER_14_156
*1412 FILLER_14_163
*1413 FILLER_14_167
*1414 FILLER_14_173
*1415 FILLER_14_182
*1416 FILLER_14_194
*1417 FILLER_14_197
*1418 FILLER_14_204
*1419 FILLER_14_211
*1420 FILLER_14_221
*1421 FILLER_14_231
*1422 FILLER_14_238
*1423 FILLER_14_250
*1424 FILLER_14_253
*1425 FILLER_14_257
*1426 FILLER_14_26
*1427 FILLER_14_280
*1428 FILLER_14_288
*1429 FILLER_14_29
*1430 FILLER_14_297
*1431 FILLER_14_3
*1432 FILLER_14_33
*1433 FILLER_14_50
*1434 FILLER_14_82
*1435 FILLER_14_85
*1436 FILLER_14_9
*1437 FILLER_14_97
*1438 FILLER_15_104
*1439 FILLER_15_11
*1440 FILLER_15_113
*1441 FILLER_15_121
*1442 FILLER_15_139
*1443 FILLER_15_151
*1444 FILLER_15_155
*1445 FILLER_15_163
*1446 FILLER_15_167
*1447 FILLER_15_169
*1448 FILLER_15_183
*1449 FILLER_15_192
*1450 FILLER_15_200
*1451 FILLER_15_209
*1452 FILLER_15_222
*1453 FILLER_15_225
*1454 FILLER_15_234
*1455 FILLER_15_238
*1456 FILLER_15_246
*1457 FILLER_15_254
*1458 FILLER_15_260
*1459 FILLER_15_266
*1460 FILLER_15_272
*1461 FILLER_15_278
*1462 FILLER_15_281
*1463 FILLER_15_290
*1464 FILLER_15_297
*1465 FILLER_15_3
*1466 FILLER_15_33
*1467 FILLER_15_54
*1468 FILLER_15_57
*1469 FILLER_15_70
*1470 FILLER_15_74
*1471 FILLER_15_92
*1472 FILLER_16_117
*1473 FILLER_16_138
*1474 FILLER_16_141
*1475 FILLER_16_148
*1476 FILLER_16_159
*1477 FILLER_16_170
*1478 FILLER_16_177
*1479 FILLER_16_183
*1480 FILLER_16_192
*1481 FILLER_16_197
*1482 FILLER_16_202
*1483 FILLER_16_210
*1484 FILLER_16_214
*1485 FILLER_16_230
*1486 FILLER_16_239
*1487 FILLER_16_247
*1488 FILLER_16_251
*1489 FILLER_16_253
*1490 FILLER_16_26
*1491 FILLER_16_263
*1492 FILLER_16_275
*1493 FILLER_16_279
*1494 FILLER_16_285
*1495 FILLER_16_29
*1496 FILLER_16_297
*1497 FILLER_16_3
*1498 FILLER_16_42
*1499 FILLER_16_48
*1500 FILLER_16_68
*1501 FILLER_16_80
*1502 FILLER_16_85
*1503 FILLER_16_9
*1504 FILLER_16_97
*1505 FILLER_17_105
*1506 FILLER_17_111
*1507 FILLER_17_113
*1508 FILLER_17_119
*1509 FILLER_17_136
*1510 FILLER_17_144
*1511 FILLER_17_149
*1512 FILLER_17_157
*1513 FILLER_17_166
*1514 FILLER_17_169
*1515 FILLER_17_174
*1516 FILLER_17_186
*1517 FILLER_17_190
*1518 FILLER_17_196
*1519 FILLER_17_208
*1520 FILLER_17_216
*1521 FILLER_17_222
*1522 FILLER_17_225
*1523 FILLER_17_251
*1524 FILLER_17_259
*1525 FILLER_17_266
*1526 FILLER_17_277
*1527 FILLER_17_281
*1528 FILLER_17_285
*1529 FILLER_17_294
*1530 FILLER_17_298
*1531 FILLER_17_3
*1532 FILLER_17_32
*1533 FILLER_17_54
*1534 FILLER_17_57
*1535 FILLER_17_81
*1536 FILLER_17_87
*1537 FILLER_17_9
*1538 FILLER_18_104
*1539 FILLER_18_116
*1540 FILLER_18_136
*1541 FILLER_18_141
*1542 FILLER_18_153
*1543 FILLER_18_165
*1544 FILLER_18_169
*1545 FILLER_18_179
*1546 FILLER_18_189
*1547 FILLER_18_195
*1548 FILLER_18_197
*1549 FILLER_18_207
*1550 FILLER_18_21
*1551 FILLER_18_217
*1552 FILLER_18_226
*1553 FILLER_18_230
*1554 FILLER_18_238
*1555 FILLER_18_250
*1556 FILLER_18_253
*1557 FILLER_18_262
*1558 FILLER_18_27
*1559 FILLER_18_274
*1560 FILLER_18_281
*1561 FILLER_18_285
*1562 FILLER_18_29
*1563 FILLER_18_294
*1564 FILLER_18_298
*1565 FILLER_18_3
*1566 FILLER_18_49
*1567 FILLER_18_57
*1568 FILLER_18_65
*1569 FILLER_18_82
*1570 FILLER_18_85
*1571 FILLER_18_98
*1572 FILLER_19_110
*1573 FILLER_19_113
*1574 FILLER_19_118
*1575 FILLER_19_138
*1576 FILLER_19_154
*1577 FILLER_19_165
*1578 FILLER_19_169
*1579 FILLER_19_181
*1580 FILLER_19_192
*1581 FILLER_19_200
*1582 FILLER_19_208
*1583 FILLER_19_212
*1584 FILLER_19_217
*1585 FILLER_19_223
*1586 FILLER_19_225
*1587 FILLER_19_23
*1588 FILLER_19_231
*1589 FILLER_19_241
*1590 FILLER_19_252
*1591 FILLER_19_264
*1592 FILLER_19_273
*1593 FILLER_19_279
*1594 FILLER_19_281
*1595 FILLER_19_292
*1596 FILLER_19_298
*1597 FILLER_19_3
*1598 FILLER_19_31
*1599 FILLER_19_48
*1600 FILLER_19_57
*1601 FILLER_19_64
*1602 FILLER_19_72
*1603 FILLER_19_90
*1604 FILLER_1_105
*1605 FILLER_1_11
*1606 FILLER_1_111
*1607 FILLER_1_113
*1608 FILLER_1_134
*1609 FILLER_1_142
*1610 FILLER_1_153
*1611 FILLER_1_166
*1612 FILLER_1_169
*1613 FILLER_1_179
*1614 FILLER_1_191
*1615 FILLER_1_200
*1616 FILLER_1_204
*1617 FILLER_1_212
*1618 FILLER_1_225
*1619 FILLER_1_237
*1620 FILLER_1_243
*1621 FILLER_1_251
*1622 FILLER_1_264
*1623 FILLER_1_278
*1624 FILLER_1_281
*1625 FILLER_1_288
*1626 FILLER_1_296
*1627 FILLER_1_3
*1628 FILLER_1_30
*1629 FILLER_1_34
*1630 FILLER_1_53
*1631 FILLER_1_57
*1632 FILLER_1_78
*1633 FILLER_1_84
*1634 FILLER_1_87
*1635 FILLER_20_103
*1636 FILLER_20_128
*1637 FILLER_20_132
*1638 FILLER_20_138
*1639 FILLER_20_141
*1640 FILLER_20_151
*1641 FILLER_20_157
*1642 FILLER_20_166
*1643 FILLER_20_176
*1644 FILLER_20_182
*1645 FILLER_20_191
*1646 FILLER_20_195
*1647 FILLER_20_197
*1648 FILLER_20_22
*1649 FILLER_20_221
*1650 FILLER_20_233
*1651 FILLER_20_241
*1652 FILLER_20_250
*1653 FILLER_20_253
*1654 FILLER_20_258
*1655 FILLER_20_288
*1656 FILLER_20_29
*1657 FILLER_20_297
*1658 FILLER_20_3
*1659 FILLER_20_34
*1660 FILLER_20_42
*1661 FILLER_20_55
*1662 FILLER_20_59
*1663 FILLER_20_78
*1664 FILLER_20_85
*1665 FILLER_21_11
*1666 FILLER_21_110
*1667 FILLER_21_113
*1668 FILLER_21_119
*1669 FILLER_21_139
*1670 FILLER_21_14
*1671 FILLER_21_148
*1672 FILLER_21_156
*1673 FILLER_21_164
*1674 FILLER_21_169
*1675 FILLER_21_180
*1676 FILLER_21_195
*1677 FILLER_21_203
*1678 FILLER_21_210
*1679 FILLER_21_222
*1680 FILLER_21_225
*1681 FILLER_21_231
*1682 FILLER_21_238
*1683 FILLER_21_245
*1684 FILLER_21_252
*1685 FILLER_21_261
*1686 FILLER_21_272
*1687 FILLER_21_281
*1688 FILLER_21_288
*1689 FILLER_21_297
*1690 FILLER_21_3
*1691 FILLER_21_33
*1692 FILLER_21_53
*1693 FILLER_21_57
*1694 FILLER_21_67
*1695 FILLER_21_77
*1696 FILLER_21_87
*1697 FILLER_21_91
*1698 FILLER_22_102
*1699 FILLER_22_120
*1700 FILLER_22_135
*1701 FILLER_22_139
*1702 FILLER_22_141
*1703 FILLER_22_150
*1704 FILLER_22_157
*1705 FILLER_22_168
*1706 FILLER_22_185
*1707 FILLER_22_193
*1708 FILLER_22_197
*1709 FILLER_22_22
*1710 FILLER_22_221
*1711 FILLER_22_229
*1712 FILLER_22_238
*1713 FILLER_22_247
*1714 FILLER_22_251
*1715 FILLER_22_253
*1716 FILLER_22_26
*1717 FILLER_22_260
*1718 FILLER_22_267
*1719 FILLER_22_280
*1720 FILLER_22_29
*1721 FILLER_22_291
*1722 FILLER_22_3
*1723 FILLER_22_41
*1724 FILLER_22_49
*1725 FILLER_22_67
*1726 FILLER_22_79
*1727 FILLER_22_83
*1728 FILLER_22_85
*1729 FILLER_22_98
*1730 FILLER_23_104
*1731 FILLER_23_113
*1732 FILLER_23_118
*1733 FILLER_23_138
*1734 FILLER_23_149
*1735 FILLER_23_157
*1736 FILLER_23_166
*1737 FILLER_23_169
*1738 FILLER_23_179
*1739 FILLER_23_188
*1740 FILLER_23_195
*1741 FILLER_23_207
*1742 FILLER_23_217
*1743 FILLER_23_223
*1744 FILLER_23_225
*1745 FILLER_23_234
*1746 FILLER_23_243
*1747 FILLER_23_249
*1748 FILLER_23_256
*1749 FILLER_23_265
*1750 FILLER_23_275
*1751 FILLER_23_279
*1752 FILLER_23_281
*1753 FILLER_23_287
*1754 FILLER_23_293
*1755 FILLER_23_3
*1756 FILLER_23_32
*1757 FILLER_23_52
*1758 FILLER_23_57
*1759 FILLER_23_65
*1760 FILLER_23_84
*1761 FILLER_23_9
*1762 FILLER_24_115
*1763 FILLER_24_135
*1764 FILLER_24_139
*1765 FILLER_24_141
*1766 FILLER_24_150
*1767 FILLER_24_155
*1768 FILLER_24_165
*1769 FILLER_24_169
*1770 FILLER_24_175
*1771 FILLER_24_182
*1772 FILLER_24_189
*1773 FILLER_24_195
*1774 FILLER_24_197
*1775 FILLER_24_203
*1776 FILLER_24_207
*1777 FILLER_24_211
*1778 FILLER_24_220
*1779 FILLER_24_228
*1780 FILLER_24_239
*1781 FILLER_24_250
*1782 FILLER_24_253
*1783 FILLER_24_26
*1784 FILLER_24_263
*1785 FILLER_24_273
*1786 FILLER_24_286
*1787 FILLER_24_29
*1788 FILLER_24_293
*1789 FILLER_24_3
*1790 FILLER_24_37
*1791 FILLER_24_50
*1792 FILLER_24_71
*1793 FILLER_24_82
*1794 FILLER_24_9
*1795 FILLER_24_92
*1796 FILLER_24_96
*1797 FILLER_25_104
*1798 FILLER_25_113
*1799 FILLER_25_13
*1800 FILLER_25_133
*1801 FILLER_25_141
*1802 FILLER_25_149
*1803 FILLER_25_162
*1804 FILLER_25_169
*1805 FILLER_25_177
*1806 FILLER_25_184
*1807 FILLER_25_191
*1808 FILLER_25_203
*1809 FILLER_25_207
*1810 FILLER_25_215
*1811 FILLER_25_222
*1812 FILLER_25_225
*1813 FILLER_25_232
*1814 FILLER_25_247
*1815 FILLER_25_254
*1816 FILLER_25_264
*1817 FILLER_25_273
*1818 FILLER_25_279
*1819 FILLER_25_281
*1820 FILLER_25_290
*1821 FILLER_25_297
*1822 FILLER_25_3
*1823 FILLER_25_33
*1824 FILLER_25_54
*1825 FILLER_25_57
*1826 FILLER_25_76
*1827 FILLER_25_9
*1828 FILLER_25_97
*1829 FILLER_26_105
*1830 FILLER_26_117
*1831 FILLER_26_121
*1832 FILLER_26_138
*1833 FILLER_26_141
*1834 FILLER_26_150
*1835 FILLER_26_157
*1836 FILLER_26_168
*1837 FILLER_26_172