*SPEF "ieee 1481-1999"
*DESIGN "jordan336_toy_cpu"
*DATE "11:11:11 Fri 11 11, 1111"
*VENDOR "OpenRCX"
*PROGRAM "Parallel Extraction"
*VERSION "1.0"
*DESIGN_FLOW "NAME_SCOPE LOCAL" "PIN_CAP NONE"
*DIVIDER /
*DELIMITER :
*BUS_DELIMITER []
*T_UNIT 1 NS
*C_UNIT 1 PF
*R_UNIT 1 OHM
*L_UNIT 1 HENRY

*NAME_MAP
*1 io_in[0]
*2 io_in[1]
*3 io_in[2]
*4 io_in[3]
*5 io_in[4]
*6 io_in[5]
*7 io_in[6]
*8 io_in[7]
*9 io_out[0]
*10 io_out[1]
*11 io_out[2]
*12 io_out[3]
*13 io_out[4]
*14 io_out[5]
*15 io_out[6]
*16 io_out[7]
*19 _0000_
*20 _0001_
*21 _0002_
*22 _0003_
*23 _0004_
*24 _0005_
*25 _0006_
*26 _0007_
*27 _0008_
*28 _0009_
*29 _0010_
*30 _0011_
*31 _0012_
*32 _0013_
*33 _0014_
*34 _0015_
*35 _0016_
*36 _0017_
*37 _0018_
*38 _0019_
*39 _0020_
*40 _0021_
*41 _0022_
*42 _0023_
*43 _0024_
*44 _0025_
*45 _0026_
*46 _0027_
*47 _0028_
*48 _0029_
*49 _0030_
*50 _0031_
*51 _0032_
*52 _0033_
*53 _0034_
*54 _0035_
*55 _0036_
*56 _0037_
*57 _0038_
*58 _0039_
*59 _0040_
*60 _0041_
*61 _0042_
*62 _0043_
*63 _0044_
*64 _0045_
*65 _0046_
*66 _0047_
*67 _0048_
*68 _0049_
*69 _0050_
*70 _0051_
*71 _0052_
*72 _0053_
*73 _0054_
*74 _0055_
*75 _0056_
*76 _0057_
*77 _0058_
*78 _0059_
*79 _0060_
*80 _0061_
*81 _0062_
*82 _0063_
*83 _0064_
*84 _0065_
*85 _0066_
*86 _0067_
*87 _0068_
*88 _0069_
*89 _0070_
*90 _0071_
*91 _0072_
*92 _0073_
*93 _0074_
*94 _0075_
*95 _0076_
*96 _0077_
*97 _0078_
*98 _0079_
*99 _0080_
*100 _0081_
*101 _0082_
*102 _0083_
*103 _0084_
*104 _0085_
*105 _0086_
*106 _0087_
*107 _0088_
*108 _0089_
*109 _0090_
*110 _0091_
*111 _0092_
*112 _0093_
*113 _0094_
*114 _0095_
*115 _0096_
*116 _0097_
*117 _0098_
*118 _0099_
*119 _0100_
*120 _0101_
*121 _0102_
*122 _0103_
*123 _0104_
*124 _0105_
*125 _0106_
*126 _0107_
*127 _0108_
*128 _0109_
*129 _0110_
*130 _0111_
*131 _0112_
*132 _0113_
*133 _0114_
*134 _0115_
*135 _0116_
*136 _0117_
*137 _0118_
*138 _0119_
*139 _0120_
*140 _0121_
*141 _0122_
*142 _0123_
*143 _0124_
*144 _0125_
*145 _0126_
*146 _0127_
*147 _0128_
*148 _0129_
*149 _0130_
*150 _0131_
*151 _0132_
*152 _0133_
*153 _0134_
*154 _0135_
*155 _0136_
*156 _0137_
*157 _0138_
*158 _0139_
*159 _0140_
*160 _0141_
*161 _0142_
*162 _0143_
*163 _0144_
*164 _0145_
*165 _0146_
*166 _0147_
*167 _0148_
*168 _0149_
*169 _0150_
*170 _0151_
*171 _0152_
*172 _0153_
*173 _0154_
*174 _0155_
*175 _0156_
*176 _0157_
*177 _0158_
*178 _0159_
*179 _0160_
*180 _0161_
*181 _0162_
*182 _0163_
*183 _0164_
*184 _0165_
*185 _0166_
*186 _0167_
*187 _0168_
*188 _0169_
*189 _0170_
*190 _0171_
*191 _0172_
*192 _0173_
*193 _0174_
*194 _0175_
*195 _0176_
*196 _0177_
*197 _0178_
*198 _0179_
*199 _0180_
*200 _0181_
*201 _0182_
*202 _0183_
*203 _0184_
*204 _0185_
*205 _0186_
*206 _0187_
*207 _0188_
*208 _0189_
*209 _0190_
*210 _0191_
*211 _0192_
*212 _0193_
*213 _0194_
*214 _0195_
*215 _0196_
*216 _0197_
*217 _0198_
*218 _0199_
*219 _0200_
*220 _0201_
*221 _0202_
*222 _0203_
*223 _0204_
*224 _0205_
*225 _0206_
*226 _0207_
*227 _0208_
*228 _0209_
*229 _0210_
*230 _0211_
*231 _0212_
*232 _0213_
*233 _0214_
*234 _0215_
*235 _0216_
*236 _0217_
*237 _0218_
*238 _0219_
*239 _0220_
*240 _0221_
*241 _0222_
*242 _0223_
*243 _0224_
*244 _0225_
*245 _0226_
*246 _0227_
*247 _0228_
*248 _0229_
*249 _0230_
*250 _0231_
*251 _0232_
*252 _0233_
*253 _0234_
*254 _0235_
*255 _0236_
*256 _0237_
*257 _0238_
*258 _0239_
*259 _0240_
*260 _0241_
*261 _0242_
*262 _0243_
*263 _0244_
*264 _0245_
*265 _0246_
*266 _0247_
*267 _0248_
*268 _0249_
*269 _0250_
*270 _0251_
*271 _0252_
*272 _0253_
*273 _0254_
*274 _0255_
*275 _0256_
*276 _0257_
*277 _0258_
*278 _0259_
*279 _0260_
*280 _0261_
*281 _0262_
*282 _0263_
*283 _0264_
*284 _0265_
*285 _0266_
*286 _0267_
*287 _0268_
*288 _0269_
*289 _0270_
*290 _0271_
*291 _0272_
*292 _0273_
*293 _0274_
*294 _0275_
*295 _0276_
*296 _0277_
*297 _0278_
*298 _0279_
*299 _0280_
*300 _0281_
*301 _0282_
*302 _0283_
*303 _0284_
*304 _0285_
*305 _0286_
*306 _0287_
*307 _0288_
*308 _0289_
*309 _0290_
*310 _0291_
*311 _0292_
*312 _0293_
*313 _0294_
*314 _0295_
*315 _0296_
*316 _0297_
*317 _0298_
*318 _0299_
*319 _0300_
*320 _0301_
*321 _0302_
*322 _0303_
*323 _0304_
*324 _0305_
*325 _0306_
*326 _0307_
*327 _0308_
*328 _0309_
*329 _0310_
*330 _0311_
*331 _0312_
*332 _0313_
*333 _0314_
*334 _0315_
*335 _0316_
*336 _0317_
*337 _0318_
*338 _0319_
*339 _0320_
*340 _0321_
*341 _0322_
*342 _0323_
*343 _0324_
*344 _0325_
*345 _0326_
*346 _0327_
*347 _0328_
*348 _0329_
*349 _0330_
*350 _0331_
*351 _0332_
*352 _0333_
*353 _0334_
*354 _0335_
*355 _0336_
*356 _0337_
*357 _0338_
*358 _0339_
*359 _0340_
*360 _0341_
*361 _0342_
*362 _0343_
*363 _0344_
*364 _0345_
*365 _0346_
*366 _0347_
*367 _0348_
*368 _0349_
*369 _0350_
*370 _0351_
*371 _0352_
*372 _0353_
*373 _0354_
*374 _0355_
*375 _0356_
*376 _0357_
*377 _0358_
*378 _0359_
*379 _0360_
*380 _0361_
*381 _0362_
*382 _0363_
*383 _0364_
*384 _0365_
*385 _0366_
*386 _0367_
*387 _0368_
*388 _0369_
*389 _0370_
*390 _0371_
*391 _0372_
*392 _0373_
*393 _0374_
*394 _0375_
*395 _0376_
*396 _0377_
*397 _0378_
*398 _0379_
*399 _0380_
*400 _0381_
*401 _0382_
*402 _0383_
*403 _0384_
*404 _0385_
*405 _0386_
*406 _0387_
*407 _0388_
*408 _0389_
*409 _0390_
*410 _0391_
*411 _0392_
*412 _0393_
*413 _0394_
*414 _0395_
*415 _0396_
*416 _0397_
*417 _0398_
*418 _0399_
*419 _0400_
*420 _0401_
*421 _0402_
*422 _0403_
*423 _0404_
*424 _0405_
*425 _0406_
*426 _0407_
*427 _0408_
*428 _0409_
*429 _0410_
*430 _0411_
*431 _0412_
*432 _0413_
*433 _0414_
*434 _0415_
*435 _0416_
*436 _0417_
*437 _0418_
*438 _0419_
*439 _0420_
*440 _0421_
*441 _0422_
*442 _0423_
*443 _0424_
*444 _0425_
*445 _0426_
*446 _0427_
*447 _0428_
*448 _0429_
*449 _0430_
*450 _0431_
*451 _0432_
*452 _0433_
*453 _0434_
*454 _0435_
*455 _0436_
*456 _0437_
*457 _0438_
*458 _0439_
*459 _0440_
*460 _0441_
*461 _0442_
*462 _0443_
*463 _0444_
*464 _0445_
*465 _0446_
*466 _0447_
*467 _0448_
*468 _0449_
*469 _0450_
*470 _0451_
*471 _0452_
*472 _0453_
*473 _0454_
*474 _0455_
*475 _0456_
*476 _0457_
*477 _0458_
*478 _0459_
*479 _0460_
*480 _0461_
*481 _0462_
*482 _0463_
*483 _0464_
*484 _0465_
*485 _0466_
*486 _0467_
*487 _0468_
*488 _0469_
*489 _0470_
*490 _0471_
*491 _0472_
*492 _0473_
*493 _0474_
*494 _0475_
*495 _0476_
*496 _0477_
*497 _0478_
*498 _0479_
*499 _0480_
*500 _0481_
*501 _0482_
*502 _0483_
*503 _0484_
*504 _0485_
*505 _0486_
*506 _0487_
*507 _0488_
*508 _0489_
*509 _0490_
*510 _0491_
*511 _0492_
*512 _0493_
*513 _0494_
*514 clknet_0_io_in[0]
*515 clknet_3_0__leaf_io_in[0]
*516 clknet_3_1__leaf_io_in[0]
*517 clknet_3_2__leaf_io_in[0]
*518 clknet_3_3__leaf_io_in[0]
*519 clknet_3_4__leaf_io_in[0]
*520 clknet_3_5__leaf_io_in[0]
*521 clknet_3_6__leaf_io_in[0]
*522 clknet_3_7__leaf_io_in[0]
*523 cpu\.alu\.opcode\[0\]
*524 cpu\.alu\.opcode\[1\]
*525 cpu\.alu\.opcode\[2\]
*526 cpu\.decode\.imm\[0\]
*527 cpu\.decode\.imm\[1\]
*528 cpu\.decode\.imm\[2\]
*529 cpu\.decode\.imm\[3\]
*530 cpu\.decode\.imm\[4\]
*531 cpu\.decode\.imm\[5\]
*532 cpu\.decode\.imm\[6\]
*533 cpu\.decode\.imm\[7\]
*534 cpu\.decode\.op_valid
*535 cpu\.dest\[0\]
*536 cpu\.dest\[1\]
*537 cpu\.dest\[2\]
*538 cpu\.reg_file\.rd0_addr\[0\]
*539 cpu\.reg_file\.rd0_addr\[1\]
*540 cpu\.reg_file\.rd0_addr\[2\]
*541 cpu\.reg_file\.rd1_addr\[0\]
*542 cpu\.reg_file\.rd1_addr\[1\]
*543 cpu\.reg_file\.rd1_addr\[2\]
*544 cpu\.reg_file\.regs\[0\]\[0\]
*545 cpu\.reg_file\.regs\[0\]\[1\]
*546 cpu\.reg_file\.regs\[0\]\[2\]
*547 cpu\.reg_file\.regs\[0\]\[3\]
*548 cpu\.reg_file\.regs\[0\]\[4\]
*549 cpu\.reg_file\.regs\[0\]\[5\]
*550 cpu\.reg_file\.regs\[0\]\[6\]
*551 cpu\.reg_file\.regs\[0\]\[7\]
*552 cpu\.reg_file\.regs\[1\]\[0\]
*553 cpu\.reg_file\.regs\[1\]\[1\]
*554 cpu\.reg_file\.regs\[1\]\[2\]
*555 cpu\.reg_file\.regs\[1\]\[3\]
*556 cpu\.reg_file\.regs\[1\]\[4\]
*557 cpu\.reg_file\.regs\[1\]\[5\]
*558 cpu\.reg_file\.regs\[1\]\[6\]
*559 cpu\.reg_file\.regs\[1\]\[7\]
*560 cpu\.reg_file\.regs\[2\]\[0\]
*561 cpu\.reg_file\.regs\[2\]\[1\]
*562 cpu\.reg_file\.regs\[2\]\[2\]
*563 cpu\.reg_file\.regs\[2\]\[3\]
*564 cpu\.reg_file\.regs\[2\]\[4\]
*565 cpu\.reg_file\.regs\[2\]\[5\]
*566 cpu\.reg_file\.regs\[2\]\[6\]
*567 cpu\.reg_file\.regs\[2\]\[7\]
*568 cpu\.reg_file\.regs\[3\]\[0\]
*569 cpu\.reg_file\.regs\[3\]\[1\]
*570 cpu\.reg_file\.regs\[3\]\[2\]
*571 cpu\.reg_file\.regs\[3\]\[3\]
*572 cpu\.reg_file\.regs\[3\]\[4\]
*573 cpu\.reg_file\.regs\[3\]\[5\]
*574 cpu\.reg_file\.regs\[3\]\[6\]
*575 cpu\.reg_file\.regs\[3\]\[7\]
*576 cpu\.reg_file\.regs\[4\]\[0\]
*577 cpu\.reg_file\.regs\[4\]\[1\]
*578 cpu\.reg_file\.regs\[4\]\[2\]
*579 cpu\.reg_file\.regs\[4\]\[3\]
*580 cpu\.reg_file\.regs\[4\]\[4\]
*581 cpu\.reg_file\.regs\[4\]\[5\]
*582 cpu\.reg_file\.regs\[4\]\[6\]
*583 cpu\.reg_file\.regs\[4\]\[7\]
*584 cpu\.reg_file\.regs\[5\]\[0\]
*585 cpu\.reg_file\.regs\[5\]\[1\]
*586 cpu\.reg_file\.regs\[5\]\[2\]
*587 cpu\.reg_file\.regs\[5\]\[3\]
*588 cpu\.reg_file\.regs\[5\]\[4\]
*589 cpu\.reg_file\.regs\[5\]\[5\]
*590 cpu\.reg_file\.regs\[5\]\[6\]
*591 cpu\.reg_file\.regs\[5\]\[7\]
*592 cpu\.reg_file\.regs\[6\]\[0\]
*593 cpu\.reg_file\.regs\[6\]\[1\]
*594 cpu\.reg_file\.regs\[6\]\[2\]
*595 cpu\.reg_file\.regs\[6\]\[3\]
*596 cpu\.reg_file\.regs\[6\]\[4\]
*597 cpu\.reg_file\.regs\[6\]\[5\]
*598 cpu\.reg_file\.regs\[6\]\[6\]
*599 cpu\.reg_file\.regs\[6\]\[7\]
*600 cpu\.reg_file\.regs\[7\]\[0\]
*601 cpu\.reg_file\.regs\[7\]\[1\]
*602 cpu\.reg_file\.regs\[7\]\[2\]
*603 cpu\.reg_file\.regs\[7\]\[3\]
*604 cpu\.reg_file\.regs\[7\]\[4\]
*605 cpu\.reg_file\.regs\[7\]\[5\]
*606 cpu\.reg_file\.regs\[7\]\[6\]
*607 cpu\.reg_file\.regs\[7\]\[7\]
*608 fetch\.op_valid_next
*609 fetch\.state\[0\]
*610 fetch\.state\[1\]
*611 net1
*612 net2
*613 net3
*614 net4
*615 net5
*616 net6
*617 net7
*618 ANTENNA_1
*619 ANTENNA_10
*620 ANTENNA_11
*621 ANTENNA_12
*622 ANTENNA_13
*623 ANTENNA_2
*624 ANTENNA_3
*625 ANTENNA_4
*626 ANTENNA_5
*627 ANTENNA_6
*628 ANTENNA_7
*629 ANTENNA_8
*630 ANTENNA_9
*631 FILLER_0_103
*632 FILLER_0_110
*633 FILLER_0_113
*634 FILLER_0_118
*635 FILLER_0_125
*636 FILLER_0_138
*637 FILLER_0_141
*638 FILLER_0_150
*639 FILLER_0_157
*640 FILLER_0_165
*641 FILLER_0_169
*642 FILLER_0_181
*643 FILLER_0_191
*644 FILLER_0_195
*645 FILLER_0_197
*646 FILLER_0_209
*647 FILLER_0_22
*648 FILLER_0_221
*649 FILLER_0_225
*650 FILLER_0_237
*651 FILLER_0_249
*652 FILLER_0_253
*653 FILLER_0_265
*654 FILLER_0_277
*655 FILLER_0_281
*656 FILLER_0_29
*657 FILLER_0_293
*658 FILLER_0_3
*659 FILLER_0_51
*660 FILLER_0_55
*661 FILLER_0_57
*662 FILLER_0_75
*663 FILLER_0_82
*664 FILLER_0_85
*665 FILLER_0_96
*666 FILLER_10_112
*667 FILLER_10_125
*668 FILLER_10_133
*669 FILLER_10_138
*670 FILLER_10_141
*671 FILLER_10_152
*672 FILLER_10_164
*673 FILLER_10_168
*674 FILLER_10_173
*675 FILLER_10_183
*676 FILLER_10_187
*677 FILLER_10_194
*678 FILLER_10_197
*679 FILLER_10_206
*680 FILLER_10_213
*681 FILLER_10_220
*682 FILLER_10_232
*683 FILLER_10_24
*684 FILLER_10_244
*685 FILLER_10_253
*686 FILLER_10_265
*687 FILLER_10_277
*688 FILLER_10_289
*689 FILLER_10_29
*690 FILLER_10_297
*691 FILLER_10_3
*692 FILLER_10_35
*693 FILLER_10_62
*694 FILLER_10_74
*695 FILLER_10_78
*696 FILLER_10_82
*697 FILLER_10_85
*698 FILLER_10_90
*699 FILLER_10_97
*700 FILLER_11_102
*701 FILLER_11_106
*702 FILLER_11_110
*703 FILLER_11_113
*704 FILLER_11_118
*705 FILLER_11_131
*706 FILLER_11_139
*707 FILLER_11_144
*708 FILLER_11_151
*709 FILLER_11_155
*710 FILLER_11_165
*711 FILLER_11_169
*712 FILLER_11_173
*713 FILLER_11_182
*714 FILLER_11_189
*715 FILLER_11_201
*716 FILLER_11_208
*717 FILLER_11_220
*718 FILLER_11_225
*719 FILLER_11_234
*720 FILLER_11_246
*721 FILLER_11_25
*722 FILLER_11_258
*723 FILLER_11_270
*724 FILLER_11_278
*725 FILLER_11_281
*726 FILLER_11_293
*727 FILLER_11_3
*728 FILLER_11_33
*729 FILLER_11_54
*730 FILLER_11_57
*731 FILLER_11_69
*732 FILLER_11_95
*733 FILLER_12_103
*734 FILLER_12_111
*735 FILLER_12_123
*736 FILLER_12_131
*737 FILLER_12_135
*738 FILLER_12_139
*739 FILLER_12_141
*740 FILLER_12_152
*741 FILLER_12_156
*742 FILLER_12_159
*743 FILLER_12_168
*744 FILLER_12_174
*745 FILLER_12_183
*746 FILLER_12_190
*747 FILLER_12_197
*748 FILLER_12_202
*749 FILLER_12_223
*750 FILLER_12_236
*751 FILLER_12_248
*752 FILLER_12_25
*753 FILLER_12_253
*754 FILLER_12_265
*755 FILLER_12_277
*756 FILLER_12_289
*757 FILLER_12_29
*758 FILLER_12_297
*759 FILLER_12_3
*760 FILLER_12_34
*761 FILLER_12_58
*762 FILLER_12_82
*763 FILLER_12_85
*764 FILLER_12_92
*765 FILLER_13_102
*766 FILLER_13_108
*767 FILLER_13_113
*768 FILLER_13_121
*769 FILLER_13_131
*770 FILLER_13_138
*771 FILLER_13_15
*772 FILLER_13_153
*773 FILLER_13_159
*774 FILLER_13_166
*775 FILLER_13_169
*776 FILLER_13_175
*777 FILLER_13_183
*778 FILLER_13_191
*779 FILLER_13_205
*780 FILLER_13_215
*781 FILLER_13_222
*782 FILLER_13_225
*783 FILLER_13_229
*784 FILLER_13_238
*785 FILLER_13_246
*786 FILLER_13_258
*787 FILLER_13_270
*788 FILLER_13_278
*789 FILLER_13_281
*790 FILLER_13_293
*791 FILLER_13_3
*792 FILLER_13_36
*793 FILLER_13_44
*794 FILLER_13_57
*795 FILLER_13_83
*796 FILLER_13_9
*797 FILLER_13_94
*798 FILLER_14_106
*799 FILLER_14_121
*800 FILLER_14_128
*801 FILLER_14_132
*802 FILLER_14_136
*803 FILLER_14_141
*804 FILLER_14_151
*805 FILLER_14_161
*806 FILLER_14_173
*807 FILLER_14_185
*808 FILLER_14_192
*809 FILLER_14_197
*810 FILLER_14_203
*811 FILLER_14_210
*812 FILLER_14_22
*813 FILLER_14_222
*814 FILLER_14_229
*815 FILLER_14_243
*816 FILLER_14_251
*817 FILLER_14_253
*818 FILLER_14_265
*819 FILLER_14_277
*820 FILLER_14_289
*821 FILLER_14_29
*822 FILLER_14_297
*823 FILLER_14_3
*824 FILLER_14_49
*825 FILLER_14_81
*826 FILLER_14_85
*827 FILLER_14_89
*828 FILLER_14_99
*829 FILLER_15_104
*830 FILLER_15_113
*831 FILLER_15_118
*832 FILLER_15_130
*833 FILLER_15_137
*834 FILLER_15_149
*835 FILLER_15_161
*836 FILLER_15_167
*837 FILLER_15_169
*838 FILLER_15_182
*839 FILLER_15_191
*840 FILLER_15_201
*841 FILLER_15_207
*842 FILLER_15_216
*843 FILLER_15_225
*844 FILLER_15_238
*845 FILLER_15_246
*846 FILLER_15_258
*847 FILLER_15_270
*848 FILLER_15_278
*849 FILLER_15_281
*850 FILLER_15_293
*851 FILLER_15_3
*852 FILLER_15_30
*853 FILLER_15_54
*854 FILLER_15_57
*855 FILLER_15_79
*856 FILLER_15_83
*857 FILLER_15_9
*858 FILLER_16_106
*859 FILLER_16_110
*860 FILLER_16_120
*861 FILLER_16_124
*862 FILLER_16_128
*863 FILLER_16_138
*864 FILLER_16_141
*865 FILLER_16_154
*866 FILLER_16_173
*867 FILLER_16_185
*868 FILLER_16_193
*869 FILLER_16_197
*870 FILLER_16_207
*871 FILLER_16_219
*872 FILLER_16_233
*873 FILLER_16_241
*874 FILLER_16_247
*875 FILLER_16_251
*876 FILLER_16_253
*877 FILLER_16_26
*878 FILLER_16_265
*879 FILLER_16_277
*880 FILLER_16_289
*881 FILLER_16_29
*882 FILLER_16_297
*883 FILLER_16_3
*884 FILLER_16_53
*885 FILLER_16_61
*886 FILLER_16_82
*887 FILLER_16_85
*888 FILLER_16_9
*889 FILLER_16_91
*890 FILLER_16_99
*891 FILLER_17_110
*892 FILLER_17_113
*893 FILLER_17_118
*894 FILLER_17_125
*895 FILLER_17_131
*896 FILLER_17_139
*897 FILLER_17_151
*898 FILLER_17_163
*899 FILLER_17_167
*900 FILLER_17_169
*901 FILLER_17_181
*902 FILLER_17_191
*903 FILLER_17_201
*904 FILLER_17_222
*905 FILLER_17_225
*906 FILLER_17_229
*907 FILLER_17_239
*908 FILLER_17_25
*909 FILLER_17_251
*910 FILLER_17_263
*911 FILLER_17_275
*912 FILLER_17_279
*913 FILLER_17_281
*914 FILLER_17_293
*915 FILLER_17_3
*916 FILLER_17_33
*917 FILLER_17_54
*918 FILLER_17_57
*919 FILLER_17_79
*920 FILLER_17_99
*921 FILLER_18_107
*922 FILLER_18_120
*923 FILLER_18_128
*924 FILLER_18_138
*925 FILLER_18_141
*926 FILLER_18_148
*927 FILLER_18_160
*928 FILLER_18_170
*929 FILLER_18_186
*930 FILLER_18_193
*931 FILLER_18_197
*932 FILLER_18_216
*933 FILLER_18_225
*934 FILLER_18_237
*935 FILLER_18_249
*936 FILLER_18_253
*937 FILLER_18_26
*938 FILLER_18_265
*939 FILLER_18_277
*940 FILLER_18_289
*941 FILLER_18_29
*942 FILLER_18_297
*943 FILLER_18_3
*944 FILLER_18_41
*945 FILLER_18_67
*946 FILLER_18_79
*947 FILLER_18_83
*948 FILLER_18_85
*949 FILLER_18_9
*950 FILLER_19_104
*951 FILLER_19_113
*952 FILLER_19_124
*953 FILLER_19_137
*954 FILLER_19_149
*955 FILLER_19_160
*956 FILLER_19_169
*957 FILLER_19_178
*958 FILLER_19_185
*959 FILLER_19_202
*960 FILLER_19_208
*961 FILLER_19_217
*962 FILLER_19_22
*963 FILLER_19_223
*964 FILLER_19_225
*965 FILLER_19_234
*966 FILLER_19_255
*967 FILLER_19_267
*968 FILLER_19_279
*969 FILLER_19_281
*970 FILLER_19_293
*971 FILLER_19_3
*972 FILLER_19_54
*973 FILLER_19_57
*974 FILLER_19_69
*975 FILLER_19_97
*976 FILLER_1_101
*977 FILLER_1_110
*978 FILLER_1_113
*979 FILLER_1_124
*980 FILLER_1_131
*981 FILLER_1_144
*982 FILLER_1_150
*983 FILLER_1_154
*984 FILLER_1_161
*985 FILLER_1_167
*986 FILLER_1_178
*987 FILLER_1_182
*988 FILLER_1_193
*989 FILLER_1_200
*990 FILLER_1_212
*991 FILLER_1_225
*992 FILLER_1_230
*993 FILLER_1_24
*994 FILLER_1_242
*995 FILLER_1_254
*996 FILLER_1_266
*997 FILLER_1_278
*998 FILLER_1_281
*999 FILLER_1_293
*1000 FILLER_1_3
*1001 FILLER_1_32
*1002 FILLER_1_54
*1003 FILLER_1_57
*1004 FILLER_1_80
*1005 FILLER_1_84
*1006 FILLER_1_88
*1007 FILLER_20_107
*1008 FILLER_20_117
*1009 FILLER_20_131
*1010 FILLER_20_138
*1011 FILLER_20_141
*1012 FILLER_20_149
*1013 FILLER_20_157
*1014 FILLER_20_166
*1015 FILLER_20_170
*1016 FILLER_20_178
*1017 FILLER_20_192
*1018 FILLER_20_197
*1019 FILLER_20_206
*1020 FILLER_20_217
*1021 FILLER_20_233
*1022 FILLER_20_245
*1023 FILLER_20_25
*1024 FILLER_20_251
*1025 FILLER_20_253
*1026 FILLER_20_265
*1027 FILLER_20_277
*1028 FILLER_20_289
*1029 FILLER_20_29
*1030 FILLER_20_297
*1031 FILLER_20_3
*1032 FILLER_20_41
*1033 FILLER_20_49
*1034 FILLER_20_70
*1035 FILLER_20_82
*1036 FILLER_20_85
*1037 FILLER_20_89
*1038 FILLER_20_95
*1039 FILLER_21_110
*1040 FILLER_21_113
*1041 FILLER_21_118
*1042 FILLER_21_129
*1043 FILLER_21_139
*1044 FILLER_21_145
*1045 FILLER_21_153
*1046 FILLER_21_166
*1047 FILLER_21_169
*1048 FILLER_21_179
*1049 FILLER_21_185
*1050 FILLER_21_190
*1051 FILLER_21_200
*1052 FILLER_21_211
*1053 FILLER_21_22
*1054 FILLER_21_222
*1055 FILLER_21_225
*1056 FILLER_21_237
*1057 FILLER_21_248
*1058 FILLER_21_260
*1059 FILLER_21_272
*1060 FILLER_21_28
*1061 FILLER_21_281
*1062 FILLER_21_293
*1063 FILLER_21_3
*1064 FILLER_21_50
*1065 FILLER_21_57
*1066 FILLER_21_65
*1067 FILLER_21_69
*1068 FILLER_21_91
*1069 FILLER_21_98
*1070 FILLER_22_102
*1071 FILLER_22_113
*1072 FILLER_22_125
*1073 FILLER_22_131
*1074 FILLER_22_137
*1075 FILLER_22_141
*1076 FILLER_22_152
*1077 FILLER_22_163
*1078 FILLER_22_182
*1079 FILLER_22_194
*1080 FILLER_22_197
*1081 FILLER_22_203
*1082 FILLER_22_212
*1083 FILLER_22_22
*1084 FILLER_22_224
*1085 FILLER_22_236
*1086 FILLER_22_248
*1087 FILLER_22_253
*1088 FILLER_22_265
*1089 FILLER_22_277
*1090 FILLER_22_289
*1091 FILLER_22_29
*1092 FILLER_22_297
*1093 FILLER_22_3
*1094 FILLER_22_34
*1095 FILLER_22_67
*1096 FILLER_22_82
*1097 FILLER_22_85
*1098 FILLER_22_94
*1099 FILLER_23_101
*1100 FILLER_23_110
*1101 FILLER_23_113
*1102 FILLER_23_126
*1103 FILLER_23_145
*1104 FILLER_23_154
*1105 FILLER_23_166
*1106 FILLER_23_169
*1107 FILLER_23_175
*1108 FILLER_23_184
*1109 FILLER_23_192
*1110 FILLER_23_199
*1111 FILLER_23_222
*1112 FILLER_23_225
*1113 FILLER_23_237
*1114 FILLER_23_249
*1115 FILLER_23_261
*1116 FILLER_23_273
*1117 FILLER_23_279
*1118 FILLER_23_281
*1119 FILLER_23_293
*1120 FILLER_23_3
*1121 FILLER_23_30
*1122 FILLER_23_54
*1123 FILLER_23_57
*1124 FILLER_23_69
*1125 FILLER_23_88
*1126 FILLER_23_9
*1127 FILLER_24_111
*1128 FILLER_24_121
*1129 FILLER_24_131
*1130 FILLER_24_139
*1131 FILLER_24_141
*1132 FILLER_24_150
*1133 FILLER_24_160
*1134 FILLER_24_168
*1135 FILLER_24_177
*1136 FILLER_24_189
*1137 FILLER_24_195
*1138 FILLER_24_197
*1139 FILLER_24_205
*1140 FILLER_24_213
*1141 FILLER_24_220
*1142 FILLER_24_228
*1143 FILLER_24_235
*1144 FILLER_24_247
*1145 FILLER_24_251
*1146 FILLER_24_253
*1147 FILLER_24_26
*1148 FILLER_24_265
*1149 FILLER_24_277
*1150 FILLER_24_289
*1151 FILLER_24_29
*1152 FILLER_24_297
*1153 FILLER_24_3
*1154 FILLER_24_52
*1155 FILLER_24_60
*1156 FILLER_24_81
*1157 FILLER_24_85
*1158 FILLER_24_92
*1159 FILLER_24_99
*1160 FILLER_25_102
*1161 FILLER_25_109
*1162 FILLER_25_113
*1163 FILLER_25_124
*1164 FILLER_25_133
*1165 FILLER_25_144
*1166 FILLER_25_156
*1167 FILLER_25_164
*1168 FILLER_25_169
*1169 FILLER_25_177
*1170 FILLER_25_185
*1171 FILLER_25_190
*1172 FILLER_25_202
*1173 FILLER_25_209
*1174 FILLER_25_221
*1175 FILLER_25_225
*1176 FILLER_25_237
*1177 FILLER_25_249
*1178 FILLER_25_26
*1179 FILLER_25_261
*1180 FILLER_25_273
*1181 FILLER_25_279
*1182 FILLER_25_281
*1183 FILLER_25_293
*1184 FILLER_25_3
*1185 FILLER_25_32
*1186 FILLER_25_54
*1187 FILLER_25_57
*1188 FILLER_25_75
*1189 FILLER_25_81
*1190 FILLER_26_101
*1191 FILLER_26_108
*1192 FILLER_26_119
*1193 FILLER_26_125
*1194 FILLER_26_135
*1195 FILLER_26_139
*1196 FILLER_26_141
*1197 FILLER_26_161
*1198 FILLER_26_173
*1199 FILLER_26_184
*1200 FILLER_26_188
*1201 FILLER_26_194
*1202 FILLER_26_197
*1203 FILLER_26_205
*1204 FILLER_26_229
*1205 FILLER_26_241
*1206 FILLER_26_249
*1207 FILLER_26_253
*1208 FILLER_26_26
*1209 FILLER_26_265
*1210 FILLER_26_277
*1211 FILLER_26_289
*1212 FILLER_26_29
*1213 FILLER_26_297
*1214 FILLER_26_3
*1215 FILLER_26_34
*1216 FILLER_26_41
*1217 FILLER_26_65
*1218 FILLER_26_77
*1219 FILLER_26_83
*1220 FILLER_26_85
*1221 FILLER_26_97
*1222 FILLER_27_106
*1223 FILLER_27_113
*1224 FILLER_27_122
*1225 FILLER_27_13
*1226 FILLER_27_133
*1227 FILLER_27_145
*1228 FILLER_27_152
*1229 FILLER_27_164
*1230 FILLER_27_169
*1231 FILLER_27_17
*1232 FILLER_27_177
*1233 FILLER_27_194
*1234 FILLER_27_205
*1235 FILLER_27_211
*1236 FILLER_27_220
*1237 FILLER_27_225
*1238 FILLER_27_231
*1239 FILLER_27_237
*1240 FILLER_27_249
*1241 FILLER_27_261
*1242 FILLER_27_273
*1243 FILLER_27_279
*1244 FILLER_27_281
*1245 FILLER_27_293
*1246 FILLER_27_3
*1247 FILLER_27_39
*1248 FILLER_27_47
*1249 FILLER_27_52
*1250 FILLER_27_57
*1251 FILLER_27_61
*1252 FILLER_27_65
*1253 FILLER_27_8
*1254 FILLER_27_89
*1255 FILLER_27_97
*1256 FILLER_28_101
*1257 FILLER_28_111
*1258 FILLER_28_123
*1259 FILLER_28_135
*1260 FILLER_28_139
*1261 FILLER_28_141
*1262 FILLER_28_151
*1263 FILLER_28_167
*1264 FILLER_28_179
*1265 FILLER_28_188
*1266 FILLER_28_197
*1267 FILLER_28_205
*1268 FILLER_28_21
*1269 FILLER_28_210
*1270 FILLER_28_222
*1271 FILLER_28_234
*1272 FILLER_28_246
*1273 FILLER_28_25
*1274 FILLER_28_253
*1275 FILLER_28_265
*1276 FILLER_28_277
*1277 FILLER_28_289
*1278 FILLER_28_29
*1279 FILLER_28_297
*1280 FILLER_28_3
*1281 FILLER_28_51
*1282 FILLER_28_58
*1283 FILLER_28_82
*1284 FILLER_28_85
*1285 FILLER_28_91
*1286 FILLER_28_95
*1287 FILLER_29_110
*1288 FILLER_29_113
*1289 FILLER_29_118
*1290 FILLER_29_133
*1291 FILLER_29_145
*1292 FILLER_29_157
*1293 FILLER_29_165
*1294 FILLER_29_169
*1295 FILLER_29_193
*1296 FILLER_29_205
*1297 FILLER_29_217
*1298 FILLER_29_222
*1299 FILLER_29_225
*1300 FILLER_29_237
*1301 FILLER_29_249
*1302 FILLER_29_25
*1303 FILLER_29_261
*1304 FILLER_29_273
*1305 FILLER_29_279
*1306 FILLER_29_281
*1307 FILLER_29_29
*1308 FILLER_29_293
*1309 FILLER_29_3
*1310 FILLER_29_32
*1311 FILLER_29_54
*1312 FILLER_29_57
*1313 FILLER_29_68
*1314 FILLER_29_76
*1315 FILLER_29_97
*1316 FILLER_2_107
*1317 FILLER_2_122
*1318 FILLER_2_130
*1319 FILLER_2_134
*1320 FILLER_2_141
*1321 FILLER_2_146
*1322 FILLER_2_154
*1323 FILLER_2_158
*1324 FILLER_2_165
*1325 FILLER_2_177
*1326 FILLER_2_183
*1327 FILLER_2_187
*1328 FILLER_2_194
*1329 FILLER_2_197
*1330 FILLER_2_202
*1331 FILLER_2_214
*1332 FILLER_2_226
*1333 FILLER_2_238
*1334 FILLER_2_250
*1335 FILLER_2_253
*1336 FILLER_2_26
*1337 FILLER_2_265
*1338 FILLER_2_277
*1339 FILLER_2_289
*1340 FILLER_2_29
*1341 FILLER_2_297
*1342 FILLER_2_3
*1343 FILLER_2_34
*1344 FILLER_2_58
*1345 FILLER_2_82
*1346 FILLER_2_85
*1347 FILLER_30_103
*1348 FILLER_30_107
*1349 FILLER_30_115
*1350 FILLER_30_125
*1351 FILLER_30_134
*1352 FILLER_30_141
*1353 FILLER_30_153
*1354 FILLER_30_165
*1355 FILLER_30_177
*1356 FILLER_30_181
*1357 FILLER_30_190
*1358 FILLER_30_197
*1359 FILLER_30_209
*1360 FILLER_30_221
*1361 FILLER_30_233
*1362 FILLER_30_245
*1363 FILLER_30_25
*1364 FILLER_30_251
*1365 FILLER_30_253
*1366 FILLER_30_265
*1367 FILLER_30_277
*1368 FILLER_30_289
*1369 FILLER_30_29
*1370 FILLER_30_297
*1371 FILLER_30_3
*1372 FILLER_30_36
*1373 FILLER_30_41
*1374 FILLER_30_47
*1375 FILLER_30_69
*1376 FILLER_30_79
*1377 FILLER_30_83
*1378 FILLER_30_85
*1379 FILLER_30_97
*1380 FILLER_31_103
*1381 FILLER_31_111
*1382 FILLER_31_113
*1383 FILLER_31_122
*1384 FILLER_31_134
*1385 FILLER_31_146
*1386 FILLER_31_158
*1387 FILLER_31_166
*1388 FILLER_31_169
*1389 FILLER_31_181
*1390 FILLER_31_193
*1391 FILLER_31_205
*1392 FILLER_31_217
*1393 FILLER_31_223
*1394 FILLER_31_225
*1395 FILLER_31_233
*1396 FILLER_31_245
*1397 FILLER_31_257
*1398 FILLER_31_269
*1399 FILLER_31_27
*1400 FILLER_31_277
*1401 FILLER_31_281
*1402 FILLER_31_293
*1403 FILLER_31_3
*1404 FILLER_31_31
*1405 FILLER_31_54
*1406 FILLER_31_57
*1407 FILLER_31_80
*1408 FILLER_31_84
*1409 FILLER_31_96
*1410 FILLER_32_111
*1411 FILLER_32_118
*1412 FILLER_32_127
*1413 FILLER_32_139
*1414 FILLER_32_141
*1415 FILLER_32_147
*1416 FILLER_32_155
*1417 FILLER_32_165
*1418 FILLER_32_171
*1419 FILLER_32_179
*1420 FILLER_32_191
*1421 FILLER_32_195
*1422 FILLER_32_197
*1423 FILLER_32_209
*1424 FILLER_32_21
*1425 FILLER_32_221
*1426 FILLER_32_233
*1427 FILLER_32_245
*1428 FILLER_32_251
*1429 FILLER_32_253
*1430 FILLER_32_265
*1431 FILLER_32_27
*1432 FILLER_32_277
*1433 FILLER_32_289
*1434 FILLER_32_29
*1435 FILLER_32_297
*1436 FILLER_32_3
*1437 FILLER_32_41
*1438 FILLER_32_53
*1439 FILLER_32_59
*1440 FILLER_32_68
*1441 FILLER_32_75
*1442 FILLER_32_82
*1443 FILLER_32_85
*1444 FILLER_32_94
*1445 FILLER_33_103
*1446 FILLER_33_107
*1447 FILLER_33_111
*1448 FILLER_33_113
*1449 FILLER_33_119
*1450 FILLER_33_137
*1451 FILLER_33_145
*1452 FILLER_33_153
*1453 FILLER_33_165
*1454 FILLER_33_169
*1455 FILLER_33_181
*1456 FILLER_33_193
*1457 FILLER_33_20
*1458 FILLER_33_205
*1459 FILLER_33_217
*1460 FILLER_33_223
*1461 FILLER_33_225
*1462 FILLER_33_237
*1463 FILLER_33_249
*1464 FILLER_33_261
*1465 FILLER_33_27
*1466 FILLER_33_273
*1467 FILLER_33_279
*1468 FILLER_33_281
*1469 FILLER_33_293
*1470 FILLER_33_3
*1471 FILLER_33_34
*1472 FILLER_33_46
*1473 FILLER_33_54
*1474 FILLER_33_57
*1475 FILLER_33_69
*1476 FILLER_33_92
*1477 FILLER_33_99
*1478 FILLER_34_107
*1479 FILLER_34_113
*1480 FILLER_34_123
*1481 FILLER_34_127
*1482 FILLER_34_134
*1483 FILLER_34_141
*1484 FILLER_34_145
*1485 FILLER_34_155
*1486 FILLER_34_167
*1487 FILLER_34_17
*1488 FILLER_34_179
*1489 FILLER_34_191
*1490 FILLER_34_195
*1491 FILLER_34_197
*1492 FILLER_34_209
*1493 FILLER_34_221
*1494 FILLER_34_233
*1495 FILLER_34_24
*1496 FILLER_34_245
*1497 FILLER_34_251
*1498 FILLER_34_253
*1499 FILLER_34_265
*1500 FILLER_34_277
*1501 FILLER_34_289
*1502 FILLER_34_29
*1503 FILLER_34_297
*1504 FILLER_34_3
*1505 FILLER_34_52
*1506 FILLER_34_59
*1507 FILLER_34_7
*1508 FILLER_34_71
*1509 FILLER_34_82
*1510 FILLER_34_85
*1511 FILLER_34_96
*1512 FILLER_35_110
*1513 FILLER_35_113
*1514 FILLER_35_131
*1515 FILLER_35_144
*1516 FILLER_35_156
*1517 FILLER_35_169
*1518 FILLER_35_181
*1519 FILLER_35_193
*1520 FILLER_35_205
*1521 FILLER_35_217
*1522 FILLER_35_223
*1523 FILLER_35_225
*1524 FILLER_35_237
*1525 FILLER_35_249
*1526 FILLER_35_261
*1527 FILLER_35_27
*1528 FILLER_35_273
*1529 FILLER_35_279
*1530 FILLER_35_281
*1531 FILLER_35_293
*1532 FILLER_35_3
*1533 FILLER_35_40
*1534 FILLER_35_52
*1535 FILLER_35_57
*1536 FILLER_35_64
*1537 FILLER_35_77
*1538 FILLER_35_85
*1539 FILLER_35_99
*1540 FILLER_36_101
*1541 FILLER_36_119
*1542 FILLER_36_128
*1543 FILLER_36_13
*1544 FILLER_36_135
*1545 FILLER_36_139
*1546 FILLER_36_141
*1547 FILLER_36_149
*1548 FILLER_36_161
*1549 FILLER_36_173
*1550 FILLER_36_185
*1551 FILLER_36_193
*1552 FILLER_36_197
*1553 FILLER_36_209
*1554 FILLER_36_221
*1555 FILLER_36_233
*1556 FILLER_36_245
*1557 FILLER_36_251
*1558 FILLER_36_253
*1559 FILLER_36_26
*1560 FILLER_36_265
*1561 FILLER_36_277
*1562 FILLER_36_289
*1563 FILLER_36_29
*1564 FILLER_36_297
*1565 FILLER_36_3
*1566 FILLER_36_34
*1567 FILLER_36_66
*1568 FILLER_36_70
*1569 FILLER_36_76
*1570 FILLER_36_85
*1571 FILLER_36_91
*1572 FILLER_37_101
*1573 FILLER_37_110
*1574 FILLER_37_113
*1575 FILLER_37_121
*1576 FILLER_37_137
*1577 FILLER_37_14
*1578 FILLER_37_149
*1579 FILLER_37_157
*1580 FILLER_37_165
*1581 FILLER_37_169
*1582 FILLER_37_18
*1583 FILLER_37_181
*1584 FILLER_37_193
*1585 FILLER_37_205
*1586 FILLER_37_217
*1587 FILLER_37_22
*1588 FILLER_37_223
*1589 FILLER_37_225
*1590 FILLER_37_237
*1591 FILLER_37_249
*1592 FILLER_37_261
*1593 FILLER_37_273
*1594 FILLER_37_279
*1595 FILLER_37_281
*1596 FILLER_37_293
*1597 FILLER_37_3
*1598 FILLER_37_35
*1599 FILLER_37_43
*1600 FILLER_37_54
*1601 FILLER_37_57
*1602 FILLER_37_62
*1603 FILLER_37_70
*1604 FILLER_37_80
*1605 FILLER_37_89
*1606 FILLER_38_100
*1607 FILLER_38_118
*1608 FILLER_38_125
*1609 FILLER_38_137
*1610 FILLER_38_14
*1611 FILLER_38_141
*1612 FILLER_38_153
*1613 FILLER_38_165
*1614 FILLER_38_177
*1615 FILLER_38_189
*1616 FILLER_38_195
*1617 FILLER_38_197
*1618 FILLER_38_209
*1619 FILLER_38_22
*1620 FILLER_38_221
*1621 FILLER_38_233
*1622 FILLER_38_245
*1623 FILLER_38_251
*1624 FILLER_38_253
*1625 FILLER_38_26
*1626 FILLER_38_265
*1627 FILLER_38_277
*1628 FILLER_38_289
*1629 FILLER_38_29
*1630 FILLER_38_297
*1631 FILLER_38_3
*1632 FILLER_38_35
*1633 FILLER_38_39
*1634 FILLER_38_52
*1635 FILLER_38_60
*1636 FILLER_38_65
*1637 FILLER_38_74
*1638 FILLER_38_78
*1639 FILLER_38_82
*1640 FILLER_38_85
*1641 FILLER_38_92
*1642 FILLER_39_100
*1643 FILLER_39_107
*1644 FILLER_39_111
*1645 FILLER_39_113
*1646 FILLER_39_121
*1647 FILLER_39_129
*1648 FILLER_39_140
*1649 FILLER_39_152
*1650 FILLER_39_16
*1651 FILLER_39_164
*1652 FILLER_39_169
*1653 FILLER_39_181
*1654 FILLER_39_193
*1655 FILLER_39_205
*1656 FILLER_39_217
*1657 FILLER_39_223
*1658 FILLER_39_225
*1659 FILLER_39_237
*1660 FILLER_39_24
*1661 FILLER_39_249
*1662 FILLER_39_261
*1663 FILLER_39_273
*1664 FILLER_39_279
*1665 FILLER_39_281
*1666 FILLER_39_293
*1667 FILLER_39_3
*1668 FILLER_39_32
*1669 FILLER_39_41
*1670 FILLER_39_54
*1671 FILLER_39_57
*1672 FILLER_39_62
*1673 FILLER_39_68
*1674 FILLER_39_78
*1675 FILLER_39_86
*1676 FILLER_3_103
*1677 FILLER_3_110
*1678 FILLER_3_113
*1679 FILLER_3_124
*1680 FILLER_3_132