*SPEF "ieee 1481-1999"
*DESIGN "kevinwguan_tiny_tapeout"
*DATE "11:11:11 Fri 11 11, 1111"
*VENDOR "OpenRCX"
*PROGRAM "Parallel Extraction"
*VERSION "1.0"
*DESIGN_FLOW "NAME_SCOPE LOCAL" "PIN_CAP NONE"
*DIVIDER /
*DELIMITER :
*BUS_DELIMITER []
*T_UNIT 1 NS
*C_UNIT 1 PF
*R_UNIT 1 OHM
*L_UNIT 1 HENRY

*NAME_MAP
*1 io_in[0]
*2 io_in[1]
*3 io_in[2]
*4 io_in[3]
*5 io_in[4]
*6 io_in[5]
*7 io_in[6]
*8 io_in[7]
*9 io_out[0]
*10 io_out[1]
*11 io_out[2]
*12 io_out[3]
*13 io_out[4]
*14 io_out[5]
*15 io_out[6]
*16 io_out[7]
*19 _000_
*20 _001_
*21 _002_
*22 _003_
*23 _004_
*24 _005_
*25 _006_
*26 _007_
*27 _008_
*28 _009_
*29 _010_
*30 _011_
*31 _012_
*32 _013_
*33 _014_
*34 _015_
*35 _016_
*36 _017_
*37 _018_
*38 _019_
*39 _020_
*40 _021_
*41 _022_
*42 _023_
*43 _024_
*44 _025_
*45 _026_
*46 _027_
*47 _028_
*48 _029_
*49 _030_
*50 _031_
*51 _032_
*52 _033_
*53 _034_
*54 _035_
*55 _036_
*56 _037_
*57 _038_
*58 _039_
*59 _040_
*60 _041_
*61 _042_
*62 _043_
*63 _044_
*64 _045_
*65 _046_
*66 _047_
*67 _048_
*68 _049_
*69 _050_
*70 buffer_clk\.in
*71 buffer_counter0\.in
*72 buffer_counter1\.in
*73 buffer_counter2\.in
*74 buffer_lfsm\.in
*75 buffer_rfsm\.in
*76 clknet_0_io_in[0]
*77 clknet_1_0__leaf_io_in[0]
*78 clknet_1_1__leaf_io_in[0]
*79 dc_left\.dc\[0\]
*80 dc_left\.dc\[1\]
*81 dc_left\.dc\[2\]
*82 dc_left\.store\[0\]
*83 dc_left\.store\[1\]
*84 dc_left\.store\[2\]
*85 dc_right\.dc\[0\]
*86 dc_right\.dc\[1\]
*87 dc_right\.dc\[2\]
*88 fsm_inst\.dffs0\.d
*89 fsm_inst\.dffs1\.d
*90 mux_clock\.a
*91 net1
*92 net2
*93 net3
*94 net4
*95 net5
*96 net6
*97 net7
*98 net8
*99 net9
*100 pwm_simple_linst\.clrd
*101 pwm_simple_linst\.cmp1\.equal
*102 pwm_simple_linst\.ff0\.q
*103 pwm_simple_linst\.ffe\.q
*104 pwm_simple_linst\.pass_rst\.f
*105 pwm_simple_linst\.pass_rst\.y
*106 pwm_simple_rinst\.clrd
*107 pwm_simple_rinst\.ff0\.q
*108 pwm_simple_rinst\.pass_rst\.f
*109 pwm_simple_rinst\.pass_rst\.y
*110 FILLER_0_109
*111 FILLER_0_113
*112 FILLER_0_125
*113 FILLER_0_137
*114 FILLER_0_141
*115 FILLER_0_153
*116 FILLER_0_165
*117 FILLER_0_169
*118 FILLER_0_181
*119 FILLER_0_193
*120 FILLER_0_197
*121 FILLER_0_209
*122 FILLER_0_221
*123 FILLER_0_225
*124 FILLER_0_237
*125 FILLER_0_249
*126 FILLER_0_253
*127 FILLER_0_26
*128 FILLER_0_265
*129 FILLER_0_277
*130 FILLER_0_281
*131 FILLER_0_29
*132 FILLER_0_293
*133 FILLER_0_3
*134 FILLER_0_51
*135 FILLER_0_55
*136 FILLER_0_57
*137 FILLER_0_69
*138 FILLER_0_81
*139 FILLER_0_85
*140 FILLER_0_97
*141 FILLER_10_109
*142 FILLER_10_121
*143 FILLER_10_133
*144 FILLER_10_139
*145 FILLER_10_141
*146 FILLER_10_15
*147 FILLER_10_153
*148 FILLER_10_165
*149 FILLER_10_177
*150 FILLER_10_189
*151 FILLER_10_195
*152 FILLER_10_197
*153 FILLER_10_209
*154 FILLER_10_221
*155 FILLER_10_233
*156 FILLER_10_245
*157 FILLER_10_251
*158 FILLER_10_253
*159 FILLER_10_265
*160 FILLER_10_27
*161 FILLER_10_277
*162 FILLER_10_289
*163 FILLER_10_29
*164 FILLER_10_297
*165 FILLER_10_3
*166 FILLER_10_41
*167 FILLER_10_53
*168 FILLER_10_65
*169 FILLER_10_77
*170 FILLER_10_83
*171 FILLER_10_85
*172 FILLER_10_97
*173 FILLER_11_105
*174 FILLER_11_111
*175 FILLER_11_113
*176 FILLER_11_125
*177 FILLER_11_137
*178 FILLER_11_149
*179 FILLER_11_15
*180 FILLER_11_161
*181 FILLER_11_167
*182 FILLER_11_169
*183 FILLER_11_181
*184 FILLER_11_193
*185 FILLER_11_205
*186 FILLER_11_217
*187 FILLER_11_223
*188 FILLER_11_225
*189 FILLER_11_237
*190 FILLER_11_249
*191 FILLER_11_261
*192 FILLER_11_27
*193 FILLER_11_273
*194 FILLER_11_279
*195 FILLER_11_281
*196 FILLER_11_293
*197 FILLER_11_3
*198 FILLER_11_39
*199 FILLER_11_51
*200 FILLER_11_55
*201 FILLER_11_57
*202 FILLER_11_69
*203 FILLER_11_81
*204 FILLER_11_93
*205 FILLER_12_109
*206 FILLER_12_121
*207 FILLER_12_133
*208 FILLER_12_139
*209 FILLER_12_141
*210 FILLER_12_153
*211 FILLER_12_165
*212 FILLER_12_177
*213 FILLER_12_189
*214 FILLER_12_195
*215 FILLER_12_197
*216 FILLER_12_20
*217 FILLER_12_209
*218 FILLER_12_221
*219 FILLER_12_233
*220 FILLER_12_245
*221 FILLER_12_251
*222 FILLER_12_253
*223 FILLER_12_265
*224 FILLER_12_277
*225 FILLER_12_289
*226 FILLER_12_29
*227 FILLER_12_297
*228 FILLER_12_3
*229 FILLER_12_41
*230 FILLER_12_53
*231 FILLER_12_65
*232 FILLER_12_77
*233 FILLER_12_8
*234 FILLER_12_83
*235 FILLER_12_85
*236 FILLER_12_97
*237 FILLER_13_105
*238 FILLER_13_111
*239 FILLER_13_113
*240 FILLER_13_125
*241 FILLER_13_137
*242 FILLER_13_149
*243 FILLER_13_15
*244 FILLER_13_161
*245 FILLER_13_167
*246 FILLER_13_169
*247 FILLER_13_181
*248 FILLER_13_193
*249 FILLER_13_205
*250 FILLER_13_217
*251 FILLER_13_223
*252 FILLER_13_225
*253 FILLER_13_237
*254 FILLER_13_249
*255 FILLER_13_261
*256 FILLER_13_27
*257 FILLER_13_273
*258 FILLER_13_279
*259 FILLER_13_281
*260 FILLER_13_293
*261 FILLER_13_3
*262 FILLER_13_39
*263 FILLER_13_51
*264 FILLER_13_55
*265 FILLER_13_57
*266 FILLER_13_69
*267 FILLER_13_81
*268 FILLER_13_93
*269 FILLER_14_109
*270 FILLER_14_121
*271 FILLER_14_13
*272 FILLER_14_133
*273 FILLER_14_139
*274 FILLER_14_141
*275 FILLER_14_153
*276 FILLER_14_165
*277 FILLER_14_177
*278 FILLER_14_189
*279 FILLER_14_195
*280 FILLER_14_197
*281 FILLER_14_20
*282 FILLER_14_209
*283 FILLER_14_221
*284 FILLER_14_233
*285 FILLER_14_245
*286 FILLER_14_251
*287 FILLER_14_253
*288 FILLER_14_265
*289 FILLER_14_277
*290 FILLER_14_289
*291 FILLER_14_29
*292 FILLER_14_297
*293 FILLER_14_3
*294 FILLER_14_41
*295 FILLER_14_53
*296 FILLER_14_65
*297 FILLER_14_77
*298 FILLER_14_83
*299 FILLER_14_85
*300 FILLER_14_9
*301 FILLER_14_97
*302 FILLER_15_105
*303 FILLER_15_111
*304 FILLER_15_113
*305 FILLER_15_125
*306 FILLER_15_137
*307 FILLER_15_149
*308 FILLER_15_161
*309 FILLER_15_167
*310 FILLER_15_169
*311 FILLER_15_181
*312 FILLER_15_193
*313 FILLER_15_20
*314 FILLER_15_205
*315 FILLER_15_217
*316 FILLER_15_223
*317 FILLER_15_225
*318 FILLER_15_237
*319 FILLER_15_249
*320 FILLER_15_261
*321 FILLER_15_273
*322 FILLER_15_279
*323 FILLER_15_281
*324 FILLER_15_293
*325 FILLER_15_3
*326 FILLER_15_32
*327 FILLER_15_44
*328 FILLER_15_57
*329 FILLER_15_69
*330 FILLER_15_8
*331 FILLER_15_81
*332 FILLER_15_93
*333 FILLER_16_109
*334 FILLER_16_11
*335 FILLER_16_121
*336 FILLER_16_133
*337 FILLER_16_139
*338 FILLER_16_141
*339 FILLER_16_153
*340 FILLER_16_165
*341 FILLER_16_177
*342 FILLER_16_189
*343 FILLER_16_195
*344 FILLER_16_197
*345 FILLER_16_209
*346 FILLER_16_221
*347 FILLER_16_23
*348 FILLER_16_233
*349 FILLER_16_245
*350 FILLER_16_251
*351 FILLER_16_253
*352 FILLER_16_265
*353 FILLER_16_27
*354 FILLER_16_277
*355 FILLER_16_289
*356 FILLER_16_29
*357 FILLER_16_297
*358 FILLER_16_3
*359 FILLER_16_41
*360 FILLER_16_53
*361 FILLER_16_65
*362 FILLER_16_7
*363 FILLER_16_77
*364 FILLER_16_83
*365 FILLER_16_85
*366 FILLER_16_97
*367 FILLER_17_105
*368 FILLER_17_111
*369 FILLER_17_113
*370 FILLER_17_125
*371 FILLER_17_137
*372 FILLER_17_149
*373 FILLER_17_15
*374 FILLER_17_161
*375 FILLER_17_167
*376 FILLER_17_169
*377 FILLER_17_181
*378 FILLER_17_193
*379 FILLER_17_205
*380 FILLER_17_217
*381 FILLER_17_223
*382 FILLER_17_225
*383 FILLER_17_237
*384 FILLER_17_249
*385 FILLER_17_261
*386 FILLER_17_27
*387 FILLER_17_273
*388 FILLER_17_279
*389 FILLER_17_281
*390 FILLER_17_293
*391 FILLER_17_3
*392 FILLER_17_39
*393 FILLER_17_51
*394 FILLER_17_55
*395 FILLER_17_57
*396 FILLER_17_69
*397 FILLER_17_8
*398 FILLER_17_81
*399 FILLER_17_93
*400 FILLER_18_109
*401 FILLER_18_121
*402 FILLER_18_133
*403 FILLER_18_139
*404 FILLER_18_141
*405 FILLER_18_153
*406 FILLER_18_165
*407 FILLER_18_177
*408 FILLER_18_189
*409 FILLER_18_195
*410 FILLER_18_197
*411 FILLER_18_209
*412 FILLER_18_221
*413 FILLER_18_23
*414 FILLER_18_233
*415 FILLER_18_245
*416 FILLER_18_251
*417 FILLER_18_253
*418 FILLER_18_265
*419 FILLER_18_27
*420 FILLER_18_277
*421 FILLER_18_289
*422 FILLER_18_29
*423 FILLER_18_297
*424 FILLER_18_3
*425 FILLER_18_41
*426 FILLER_18_53
*427 FILLER_18_65
*428 FILLER_18_77
*429 FILLER_18_83
*430 FILLER_18_85
*431 FILLER_18_97
*432 FILLER_19_105
*433 FILLER_19_111
*434 FILLER_19_113
*435 FILLER_19_12
*436 FILLER_19_125
*437 FILLER_19_137
*438 FILLER_19_149
*439 FILLER_19_161
*440 FILLER_19_167
*441 FILLER_19_169
*442 FILLER_19_181
*443 FILLER_19_193
*444 FILLER_19_205
*445 FILLER_19_217
*446 FILLER_19_223
*447 FILLER_19_225
*448 FILLER_19_237
*449 FILLER_19_249
*450 FILLER_19_25
*451 FILLER_19_261
*452 FILLER_19_273
*453 FILLER_19_279
*454 FILLER_19_281
*455 FILLER_19_29
*456 FILLER_19_293
*457 FILLER_19_3
*458 FILLER_19_50
*459 FILLER_19_57
*460 FILLER_19_69
*461 FILLER_19_8
*462 FILLER_19_81
*463 FILLER_19_93
*464 FILLER_1_105
*465 FILLER_1_111
*466 FILLER_1_113
*467 FILLER_1_125
*468 FILLER_1_137
*469 FILLER_1_149
*470 FILLER_1_161
*471 FILLER_1_167
*472 FILLER_1_169
*473 FILLER_1_181
*474 FILLER_1_193
*475 FILLER_1_205
*476 FILLER_1_217
*477 FILLER_1_223
*478 FILLER_1_225
*479 FILLER_1_237
*480 FILLER_1_249
*481 FILLER_1_261
*482 FILLER_1_273
*483 FILLER_1_279
*484 FILLER_1_28
*485 FILLER_1_281
*486 FILLER_1_293
*487 FILLER_1_3
*488 FILLER_1_40
*489 FILLER_1_52
*490 FILLER_1_57
*491 FILLER_1_69
*492 FILLER_1_81
*493 FILLER_1_93
*494 FILLER_20_10
*495 FILLER_20_109
*496 FILLER_20_121
*497 FILLER_20_133
*498 FILLER_20_139
*499 FILLER_20_141
*500 FILLER_20_153
*501 FILLER_20_165
*502 FILLER_20_177
*503 FILLER_20_189
*504 FILLER_20_195
*505 FILLER_20_197
*506 FILLER_20_209
*507 FILLER_20_221
*508 FILLER_20_233
*509 FILLER_20_245
*510 FILLER_20_251
*511 FILLER_20_253
*512 FILLER_20_26
*513 FILLER_20_265
*514 FILLER_20_277
*515 FILLER_20_289
*516 FILLER_20_29
*517 FILLER_20_297
*518 FILLER_20_3
*519 FILLER_20_37
*520 FILLER_20_44
*521 FILLER_20_56
*522 FILLER_20_68
*523 FILLER_20_80
*524 FILLER_20_85
*525 FILLER_20_97
*526 FILLER_21_105
*527 FILLER_21_111
*528 FILLER_21_113
*529 FILLER_21_125
*530 FILLER_21_137
*531 FILLER_21_149
*532 FILLER_21_161
*533 FILLER_21_167
*534 FILLER_21_169
*535 FILLER_21_181
*536 FILLER_21_193
*537 FILLER_21_205
*538 FILLER_21_21
*539 FILLER_21_217
*540 FILLER_21_223
*541 FILLER_21_225
*542 FILLER_21_237
*543 FILLER_21_249
*544 FILLER_21_25
*545 FILLER_21_261
*546 FILLER_21_273
*547 FILLER_21_279
*548 FILLER_21_281
*549 FILLER_21_293
*550 FILLER_21_3
*551 FILLER_21_46
*552 FILLER_21_54
*553 FILLER_21_57
*554 FILLER_21_69
*555 FILLER_21_8
*556 FILLER_21_81
*557 FILLER_21_93
*558 FILLER_22_109
*559 FILLER_22_121
*560 FILLER_22_133
*561 FILLER_22_139
*562 FILLER_22_14
*563 FILLER_22_141
*564 FILLER_22_153
*565 FILLER_22_165
*566 FILLER_22_177
*567 FILLER_22_189
*568 FILLER_22_195
*569 FILLER_22_197
*570 FILLER_22_209
*571 FILLER_22_221
*572 FILLER_22_233
*573 FILLER_22_245
*574 FILLER_22_25
*575 FILLER_22_251
*576 FILLER_22_253
*577 FILLER_22_265
*578 FILLER_22_277
*579 FILLER_22_289
*580 FILLER_22_29
*581 FILLER_22_297
*582 FILLER_22_3
*583 FILLER_22_35
*584 FILLER_22_47
*585 FILLER_22_59
*586 FILLER_22_71
*587 FILLER_22_83
*588 FILLER_22_85
*589 FILLER_22_97
*590 FILLER_23_103
*591 FILLER_23_11
*592 FILLER_23_111
*593 FILLER_23_113
*594 FILLER_23_125
*595 FILLER_23_137
*596 FILLER_23_149
*597 FILLER_23_161
*598 FILLER_23_167
*599 FILLER_23_169
*600 FILLER_23_181
*601 FILLER_23_193
*602 FILLER_23_205
*603 FILLER_23_217
*604 FILLER_23_22
*605 FILLER_23_223
*606 FILLER_23_225
*607 FILLER_23_237
*608 FILLER_23_249
*609 FILLER_23_261
*610 FILLER_23_273
*611 FILLER_23_279
*612 FILLER_23_281
*613 FILLER_23_29
*614 FILLER_23_293
*615 FILLER_23_3
*616 FILLER_23_41
*617 FILLER_23_53
*618 FILLER_23_57
*619 FILLER_23_79
*620 FILLER_23_91
*621 FILLER_24_109
*622 FILLER_24_121
*623 FILLER_24_133
*624 FILLER_24_139
*625 FILLER_24_14
*626 FILLER_24_141
*627 FILLER_24_153
*628 FILLER_24_165
*629 FILLER_24_177
*630 FILLER_24_189
*631 FILLER_24_195
*632 FILLER_24_197
*633 FILLER_24_209
*634 FILLER_24_22
*635 FILLER_24_221
*636 FILLER_24_233
*637 FILLER_24_245
*638 FILLER_24_251
*639 FILLER_24_253
*640 FILLER_24_265
*641 FILLER_24_277
*642 FILLER_24_289
*643 FILLER_24_29
*644 FILLER_24_297
*645 FILLER_24_3
*646 FILLER_24_33
*647 FILLER_24_37
*648 FILLER_24_45
*649 FILLER_24_66
*650 FILLER_24_78
*651 FILLER_24_8
*652 FILLER_24_85
*653 FILLER_24_97
*654 FILLER_25_105
*655 FILLER_25_111
*656 FILLER_25_113
*657 FILLER_25_125
*658 FILLER_25_137
*659 FILLER_25_149
*660 FILLER_25_161
*661 FILLER_25_167
*662 FILLER_25_169
*663 FILLER_25_17
*664 FILLER_25_181
*665 FILLER_25_193
*666 FILLER_25_205
*667 FILLER_25_217
*668 FILLER_25_223
*669 FILLER_25_225
*670 FILLER_25_237
*671 FILLER_25_249
*672 FILLER_25_261
*673 FILLER_25_273
*674 FILLER_25_279
*675 FILLER_25_28
*676 FILLER_25_281
*677 FILLER_25_293
*678 FILLER_25_3
*679 FILLER_25_34
*680 FILLER_25_38
*681 FILLER_25_45
*682 FILLER_25_52
*683 FILLER_25_57
*684 FILLER_25_69
*685 FILLER_25_81
*686 FILLER_25_9
*687 FILLER_25_93
*688 FILLER_26_109
*689 FILLER_26_121
*690 FILLER_26_133
*691 FILLER_26_139
*692 FILLER_26_141
*693 FILLER_26_153
*694 FILLER_26_165
*695 FILLER_26_177
*696 FILLER_26_189
*697 FILLER_26_195
*698 FILLER_26_197
*699 FILLER_26_20
*700 FILLER_26_209
*701 FILLER_26_221
*702 FILLER_26_233
*703 FILLER_26_245
*704 FILLER_26_251
*705 FILLER_26_253
*706 FILLER_26_265
*707 FILLER_26_277
*708 FILLER_26_289
*709 FILLER_26_29
*710 FILLER_26_297
*711 FILLER_26_3
*712 FILLER_26_51
*713 FILLER_26_63
*714 FILLER_26_75
*715 FILLER_26_83
*716 FILLER_26_85
*717 FILLER_26_9
*718 FILLER_26_97
*719 FILLER_27_105
*720 FILLER_27_111
*721 FILLER_27_113
*722 FILLER_27_125
*723 FILLER_27_137
*724 FILLER_27_149
*725 FILLER_27_16
*726 FILLER_27_161
*727 FILLER_27_167
*728 FILLER_27_169
*729 FILLER_27_181
*730 FILLER_27_193
*731 FILLER_27_205
*732 FILLER_27_217
*733 FILLER_27_223
*734 FILLER_27_225
*735 FILLER_27_23
*736 FILLER_27_237
*737 FILLER_27_249
*738 FILLER_27_261
*739 FILLER_27_273
*740 FILLER_27_279
*741 FILLER_27_281
*742 FILLER_27_293
*743 FILLER_27_3
*744 FILLER_27_31
*745 FILLER_27_38
*746 FILLER_27_45
*747 FILLER_27_52
*748 FILLER_27_57
*749 FILLER_27_69
*750 FILLER_27_81
*751 FILLER_27_93
*752 FILLER_28_10
*753 FILLER_28_109
*754 FILLER_28_121
*755 FILLER_28_133
*756 FILLER_28_139
*757 FILLER_28_141
*758 FILLER_28_153
*759 FILLER_28_165
*760 FILLER_28_177
*761 FILLER_28_18
*762 FILLER_28_189
*763 FILLER_28_195
*764 FILLER_28_197
*765 FILLER_28_209
*766 FILLER_28_221
*767 FILLER_28_233
*768 FILLER_28_245
*769 FILLER_28_251
*770 FILLER_28_253
*771 FILLER_28_26
*772 FILLER_28_265
*773 FILLER_28_277
*774 FILLER_28_289
*775 FILLER_28_29
*776 FILLER_28_297
*777 FILLER_28_3
*778 FILLER_28_51
*779 FILLER_28_63
*780 FILLER_28_75
*781 FILLER_28_83
*782 FILLER_28_85
*783 FILLER_28_97
*784 FILLER_29_105
*785 FILLER_29_111
*786 FILLER_29_113
*787 FILLER_29_125
*788 FILLER_29_137
*789 FILLER_29_149
*790 FILLER_29_161
*791 FILLER_29_167
*792 FILLER_29_169
*793 FILLER_29_17
*794 FILLER_29_181
*795 FILLER_29_193
*796 FILLER_29_205
*797 FILLER_29_217
*798 FILLER_29_223
*799 FILLER_29_225
*800 FILLER_29_237
*801 FILLER_29_249
*802 FILLER_29_261
*803 FILLER_29_273
*804 FILLER_29_279
*805 FILLER_29_28
*806 FILLER_29_281
*807 FILLER_29_293
*808 FILLER_29_3
*809 FILLER_29_35
*810 FILLER_29_47
*811 FILLER_29_51
*812 FILLER_29_55
*813 FILLER_29_57
*814 FILLER_29_69
*815 FILLER_29_81
*816 FILLER_29_9
*817 FILLER_29_93
*818 FILLER_2_109
*819 FILLER_2_121
*820 FILLER_2_133
*821 FILLER_2_139
*822 FILLER_2_141
*823 FILLER_2_153
*824 FILLER_2_165
*825 FILLER_2_177
*826 FILLER_2_189
*827 FILLER_2_195
*828 FILLER_2_197
*829 FILLER_2_209
*830 FILLER_2_221
*831 FILLER_2_233
*832 FILLER_2_245
*833 FILLER_2_25
*834 FILLER_2_251
*835 FILLER_2_253
*836 FILLER_2_265
*837 FILLER_2_277
*838 FILLER_2_289
*839 FILLER_2_29
*840 FILLER_2_297
*841 FILLER_2_3
*842 FILLER_2_40
*843 FILLER_2_52
*844 FILLER_2_64
*845 FILLER_2_76
*846 FILLER_2_85
*847 FILLER_2_97
*848 FILLER_30_109
*849 FILLER_30_12
*850 FILLER_30_121
*851 FILLER_30_133
*852 FILLER_30_139
*853 FILLER_30_141
*854 FILLER_30_153
*855 FILLER_30_165
*856 FILLER_30_177
*857 FILLER_30_189
*858 FILLER_30_195
*859 FILLER_30_197
*860 FILLER_30_209
*861 FILLER_30_221
*862 FILLER_30_23
*863 FILLER_30_233
*864 FILLER_30_245
*865 FILLER_30_251
*866 FILLER_30_253
*867 FILLER_30_265
*868 FILLER_30_27
*869 FILLER_30_277
*870 FILLER_30_289
*871 FILLER_30_29
*872 FILLER_30_297
*873 FILLER_30_3
*874 FILLER_30_41
*875 FILLER_30_50
*876 FILLER_30_62
*877 FILLER_30_81
*878 FILLER_30_85
*879 FILLER_30_97
*880 FILLER_31_107
*881 FILLER_31_111
*882 FILLER_31_113
*883 FILLER_31_125
*884 FILLER_31_137
*885 FILLER_31_149
*886 FILLER_31_16
*887 FILLER_31_161
*888 FILLER_31_167
*889 FILLER_31_169
*890 FILLER_31_181
*891 FILLER_31_193
*892 FILLER_31_205
*893 FILLER_31_217
*894 FILLER_31_223
*895 FILLER_31_225
*896 FILLER_31_237
*897 FILLER_31_249
*898 FILLER_31_261
*899 FILLER_31_273
*900 FILLER_31_279
*901 FILLER_31_28
*902 FILLER_31_281
*903 FILLER_31_293
*904 FILLER_31_3
*905 FILLER_31_37
*906 FILLER_31_53
*907 FILLER_31_57
*908 FILLER_31_62
*909 FILLER_31_66
*910 FILLER_31_83
*911 FILLER_31_9
*912 FILLER_31_95
*913 FILLER_32_109
*914 FILLER_32_12
*915 FILLER_32_121
*916 FILLER_32_133
*917 FILLER_32_139
*918 FILLER_32_141
*919 FILLER_32_153
*920 FILLER_32_165
*921 FILLER_32_177
*922 FILLER_32_189
*923 FILLER_32_195
*924 FILLER_32_197
*925 FILLER_32_209
*926 FILLER_32_22
*927 FILLER_32_221
*928 FILLER_32_233
*929 FILLER_32_245
*930 FILLER_32_251
*931 FILLER_32_253
*932 FILLER_32_265
*933 FILLER_32_277
*934 FILLER_32_289
*935 FILLER_32_29
*936 FILLER_32_297
*937 FILLER_32_3
*938 FILLER_32_41
*939 FILLER_32_53
*940 FILLER_32_65
*941 FILLER_32_77
*942 FILLER_32_83
*943 FILLER_32_85
*944 FILLER_32_97
*945 FILLER_33_100
*946 FILLER_33_113
*947 FILLER_33_12
*948 FILLER_33_125
*949 FILLER_33_137
*950 FILLER_33_149
*951 FILLER_33_161
*952 FILLER_33_167
*953 FILLER_33_169
*954 FILLER_33_181
*955 FILLER_33_193
*956 FILLER_33_205
*957 FILLER_33_217
*958 FILLER_33_223
*959 FILLER_33_225
*960 FILLER_33_237
*961 FILLER_33_24
*962 FILLER_33_249
*963 FILLER_33_261
*964 FILLER_33_273
*965 FILLER_33_279
*966 FILLER_33_281
*967 FILLER_33_293
*968 FILLER_33_3
*969 FILLER_33_34
*970 FILLER_33_46
*971 FILLER_33_54
*972 FILLER_33_57
*973 FILLER_33_76
*974 FILLER_33_88
*975 FILLER_34_109
*976 FILLER_34_121
*977 FILLER_34_133
*978 FILLER_34_139
*979 FILLER_34_14
*980 FILLER_34_141
*981 FILLER_34_153
*982 FILLER_34_165
*983 FILLER_34_177
*984 FILLER_34_189
*985 FILLER_34_195
*986 FILLER_34_197
*987 FILLER_34_209
*988 FILLER_34_221
*989 FILLER_34_233
*990 FILLER_34_245
*991 FILLER_34_251
*992 FILLER_34_253
*993 FILLER_34_26
*994 FILLER_34_265
*995 FILLER_34_277
*996 FILLER_34_289
*997 FILLER_34_29
*998 FILLER_34_297
*999 FILLER_34_3
*1000 FILLER_34_37
*1001 FILLER_34_52
*1002 FILLER_34_59
*1003 FILLER_34_71
*1004 FILLER_34_83
*1005 FILLER_34_85
*1006 FILLER_34_97
*1007 FILLER_35_104
*1008 FILLER_35_113
*1009 FILLER_35_125
*1010 FILLER_35_137
*1011 FILLER_35_149
*1012 FILLER_35_15
*1013 FILLER_35_161
*1014 FILLER_35_167
*1015 FILLER_35_169
*1016 FILLER_35_181
*1017 FILLER_35_19
*1018 FILLER_35_193
*1019 FILLER_35_205
*1020 FILLER_35_217
*1021 FILLER_35_223
*1022 FILLER_35_225
*1023 FILLER_35_237
*1024 FILLER_35_249
*1025 FILLER_35_261
*1026 FILLER_35_273
*1027 FILLER_35_279
*1028 FILLER_35_281
*1029 FILLER_35_293
*1030 FILLER_35_3
*1031 FILLER_35_31
*1032 FILLER_35_39
*1033 FILLER_35_45
*1034 FILLER_35_53
*1035 FILLER_35_57
*1036 FILLER_35_80
*1037 FILLER_35_9
*1038 FILLER_35_92
*1039 FILLER_36_10
*1040 FILLER_36_109
*1041 FILLER_36_121
*1042 FILLER_36_133
*1043 FILLER_36_139
*1044 FILLER_36_141
*1045 FILLER_36_153
*1046 FILLER_36_165
*1047 FILLER_36_177
*1048 FILLER_36_18
*1049 FILLER_36_189
*1050 FILLER_36_195
*1051 FILLER_36_197
*1052 FILLER_36_209
*1053 FILLER_36_22
*1054 FILLER_36_221
*1055 FILLER_36_233
*1056 FILLER_36_245
*1057 FILLER_36_251
*1058 FILLER_36_253
*1059 FILLER_36_26
*1060 FILLER_36_265
*1061 FILLER_36_277
*1062 FILLER_36_289
*1063 FILLER_36_29
*1064 FILLER_36_297
*1065 FILLER_36_3
*1066 FILLER_36_37
*1067 FILLER_36_58
*1068 FILLER_36_70
*1069 FILLER_36_82
*1070 FILLER_36_85
*1071 FILLER_36_97
*1072 FILLER_37_105
*1073 FILLER_37_111
*1074 FILLER_37_113
*1075 FILLER_37_125
*1076 FILLER_37_137
*1077 FILLER_37_14
*1078 FILLER_37_149
*1079 FILLER_37_161
*1080 FILLER_37_167
*1081 FILLER_37_169
*1082 FILLER_37_181
*1083 FILLER_37_193
*1084 FILLER_37_205
*1085 FILLER_37_217
*1086 FILLER_37_22
*1087 FILLER_37_223
*1088 FILLER_37_225
*1089 FILLER_37_237
*1090 FILLER_37_249
*1091 FILLER_37_261
*1092 FILLER_37_273
*1093 FILLER_37_279
*1094 FILLER_37_281
*1095 FILLER_37_293
*1096 FILLER_37_3
*1097 FILLER_37_34
*1098 FILLER_37_46
*1099 FILLER_37_54
*1100 FILLER_37_57
*1101 FILLER_37_69
*1102 FILLER_37_81
*1103 FILLER_37_93
*1104 FILLER_38_109
*1105 FILLER_38_121
*1106 FILLER_38_133
*1107 FILLER_38_139
*1108 FILLER_38_141
*1109 FILLER_38_153
*1110 FILLER_38_165
*1111 FILLER_38_17
*1112 FILLER_38_177
*1113 FILLER_38_189
*1114 FILLER_38_195
*1115 FILLER_38_197
*1116 FILLER_38_209
*1117 FILLER_38_221
*1118 FILLER_38_233
*1119 FILLER_38_245
*1120 FILLER_38_25
*1121 FILLER_38_251
*1122 FILLER_38_253
*1123 FILLER_38_265
*1124 FILLER_38_277
*1125 FILLER_38_289
*1126 FILLER_38_29
*1127 FILLER_38_297
*1128 FILLER_38_3
*1129 FILLER_38_38
*1130 FILLER_38_50
*1131 FILLER_38_62
*1132 FILLER_38_74
*1133 FILLER_38_82
*1134 FILLER_38_85
*1135 FILLER_38_9
*1136 FILLER_38_97
*1137 FILLER_39_10
*1138 FILLER_39_105
*1139 FILLER_39_111
*1140 FILLER_39_113
*1141 FILLER_39_125
*1142 FILLER_39_137
*1143 FILLER_39_149
*1144 FILLER_39_161
*1145 FILLER_39_167
*1146 FILLER_39_169
*1147 FILLER_39_17
*1148 FILLER_39_181
*1149 FILLER_39_193
*1150 FILLER_39_205
*1151 FILLER_39_21
*1152 FILLER_39_217
*1153 FILLER_39_223
*1154 FILLER_39_225
*1155 FILLER_39_237
*1156 FILLER_39_249
*1157 FILLER_39_261
*1158 FILLER_39_273
*1159 FILLER_39_279
*1160 FILLER_39_281
*1161 FILLER_39_29
*1162 FILLER_39_293
*1163 FILLER_39_3
*1164 FILLER_39_54
*1165 FILLER_39_57
*1166 FILLER_39_69
*1167 FILLER_39_81
*1168 FILLER_39_93
*1169 FILLER_3_105
*1170 FILLER_3_111
*1171 FILLER_3_113
*1172 FILLER_3_125
*1173 FILLER_3_137
*1174 FILLER_3_14
*1175 FILLER_3_149
*1176 FILLER_3_161
*1177 FILLER_3_167
*1178 FILLER_3_169
*1179 FILLER_3_181
*1180 FILLER_3_193
*1181 FILLER_3_205
*1182 FILLER_3_217
*1183 FILLER_3_223
*1184 FILLER_3_225
*1185 FILLER_3_237
*1186 FILLER_3_249
*1187 FILLER_3_261
*1188 FILLER_3_273
*1189 FILLER_3_279
*1190 FILLER_3_281
*1191 FILLER_3_293
*1192 FILLER_3_3
*1193 FILLER_3_38
*1194 FILLER_3_50
*1195 FILLER_3_57
*1196 FILLER_3_69
*1197 FILLER_3_81
*1198 FILLER_3_93
*1199 FILLER_40_109
*1200 FILLER_40_11
*1201 FILLER_40_121
*1202 FILLER_40_133
*1203 FILLER_40_139
*1204 FILLER_40_141
*1205 FILLER_40_153
*1206 FILLER_40_165
*1207 FILLER_40_177
*1208 FILLER_40_189
*1209 FILLER_40_195
*1210 FILLER_40_197
*1211 FILLER_40_209
*1212 FILLER_40_221
*1213 FILLER_40_23
*1214 FILLER_40_233
*1215 FILLER_40_245
*1216 FILLER_40_251
*1217 FILLER_40_253
*1218 FILLER_40_265
*1219 FILLER_40_27
*1220 FILLER_40_277
*1221 FILLER_40_289
*1222 FILLER_40_29
*1223 FILLER_40_297
*1224 FILLER_40_3
*1225 FILLER_40_41
*1226 FILLER_40_53
*1227 FILLER_40_65
*1228 FILLER_40_77
*1229 FILLER_40_83
*1230 FILLER_40_85
*1231 FILLER_40_97
*1232 FILLER_41_105
*1233 FILLER_41_111
*1234 FILLER_41_113
*1235 FILLER_41_125
*1236 FILLER_41_137
*1237 FILLER_41_149
*1238 FILLER_41_15
*1239 FILLER_41_161
*1240 FILLER_41_167
*1241 FILLER_41_169
*1242 FILLER_41_181
*1243 FILLER_41_193
*1244 FILLER_41_205
*1245 FILLER_41_217
*1246 FILLER_41_223
*1247 FILLER_41_225
*1248 FILLER_41_237
*1249 FILLER_41_249
*1250 FILLER_41_261
*1251 FILLER_41_27
*1252 FILLER_41_273
*1253 FILLER_41_279
*1254 FILLER_41_281
*1255 FILLER_41_293
*1256 FILLER_41_3
*1257 FILLER_41_39
*1258 FILLER_41_51
*1259 FILLER_41_55
*1260 FILLER_41_57
*1261 FILLER_41_69
*1262 FILLER_41_81
*1263 FILLER_41_93
*1264 FILLER_42_109
*1265 FILLER_42_11
*1266 FILLER_42_121
*1267 FILLER_42_133
*1268 FILLER_42_139
*1269 FILLER_42_141
*1270 FILLER_42_153
*1271 FILLER_42_165
*1272 FILLER_42_177
*1273 FILLER_42_189
*1274 FILLER_42_195
*1275 FILLER_42_197
*1276 FILLER_42_209
*1277 FILLER_42_21
*1278 FILLER_42_221
*1279 FILLER_42_233
*1280 FILLER_42_245
*1281 FILLER_42_251
*1282 FILLER_42_253
*1283 FILLER_42_265
*1284 FILLER_42_27
*1285 FILLER_42_277
*1286 FILLER_42_289
*1287 FILLER_42_29
*1288 FILLER_42_297
*1289 FILLER_42_3
*1290 FILLER_42_41
*1291 FILLER_42_53
*1292 FILLER_42_65
*1293 FILLER_42_77
*1294 FILLER_42_83
*1295 FILLER_42_85
*1296 FILLER_42_97
*1297 FILLER_43_105
*1298 FILLER_43_111
*1299 FILLER_43_113
*1300 FILLER_43_12
*1301 FILLER_43_125
*1302 FILLER_43_137
*1303 FILLER_43_149
*1304 FILLER_43_161
*1305 FILLER_43_167
*1306 FILLER_43_169
*1307 FILLER_43_181
*1308 FILLER_43_193
*1309 FILLER_43_205
*1310 FILLER_43_217
*1311 FILLER_43_223
*1312 FILLER_43_225
*1313 FILLER_43_237
*1314 FILLER_43_24
*1315 FILLER_43_249
*1316 FILLER_43_261
*1317 FILLER_43_273
*1318 FILLER_43_279
*1319 FILLER_43_281
*1320 FILLER_43_293
*1321 FILLER_43_3
*1322 FILLER_43_36
*1323 FILLER_43_48
*1324 FILLER_43_57
*1325 FILLER_43_69
*1326 FILLER_43_7
*1327 FILLER_43_81
*1328 FILLER_43_93
*1329 FILLER_44_109
*1330 FILLER_44_121
*1331 FILLER_44_133
*1332 FILLER_44_139
*1333 FILLER_44_141
*1334 FILLER_44_15
*1335 FILLER_44_153
*1336 FILLER_44_165
*1337 FILLER_44_177
*1338 FILLER_44_189
*1339 FILLER_44_195
*1340 FILLER_44_197
*1341 FILLER_44_209
*1342 FILLER_44_221
*1343 FILLER_44_233
*1344 FILLER_44_245
*1345 FILLER_44_251
*1346 FILLER_44_253
*1347 FILLER_44_265
*1348 FILLER_44_27
*1349 FILLER_44_277
*1350 FILLER_44_289
*1351 FILLER_44_29
*1352 FILLER_44_297
*1353 FILLER_44_3
*1354 FILLER_44_41
*1355 FILLER_44_53
*1356 FILLER_44_65
*1357 FILLER_44_77
*1358 FILLER_44_83
*1359 FILLER_44_85
*1360 FILLER_44_97
*1361 FILLER_45_105
*1362 FILLER_45_111
*1363 FILLER_45_113
*1364 FILLER_45_125
*1365 FILLER_45_137
*1366 FILLER_45_149
*1367 FILLER_45_15
*1368 FILLER_45_161
*1369 FILLER_45_167
*1370 FILLER_45_169
*1371 FILLER_45_181
*1372 FILLER_45_193
*1373 FILLER_45_205
*1374 FILLER_45_217
*1375 FILLER_45_223
*1376 FILLER_45_225
*1377 FILLER_45_237
*1378 FILLER_45_249
*1379 FILLER_45_261
*1380 FILLER_45_27
*1381 FILLER_45_273
*1382 FILLER_45_279
*1383 FILLER_45_281
*1384 FILLER_45_293
*1385 FILLER_45_3
*1386 FILLER_45_39
*1387 FILLER_45_51
*1388 FILLER_45_55
*1389 FILLER_45_57
*1390 FILLER_45_69
*1391 FILLER_45_81
*1392 FILLER_45_93
*1393 FILLER_46_109
*1394 FILLER_46_121
*1395 FILLER_46_133
*1396 FILLER_46_139
*1397 FILLER_46_141
*1398 FILLER_46_15
*1399 FILLER_46_153
*1400 FILLER_46_165
*1401 FILLER_46_177
*1402 FILLER_46_189
*1403 FILLER_46_195
*1404 FILLER_46_197
*1405 FILLER_46_209
*1406 FILLER_46_221
*1407 FILLER_46_233
*1408 FILLER_46_245
*1409 FILLER_46_251
*1410 FILLER_46_253
*1411 FILLER_46_265
*1412 FILLER_46_27
*1413 FILLER_46_277
*1414 FILLER_46_289
*1415 FILLER_46_29
*1416 FILLER_46_297
*1417 FILLER_46_3
*1418 FILLER_46_41
*1419 FILLER_46_53
*1420 FILLER_46_65
*1421 FILLER_46_77
*1422 FILLER_46_83
*1423 FILLER_46_85
*1424 FILLER_46_97
*1425 FILLER_47_105
*1426 FILLER_47_111
*1427 FILLER_47_113
*1428 FILLER_47_125
*1429 FILLER_47_137
*1430 FILLER_47_149
*1431 FILLER_47_15
*1432 FILLER_47_161
*1433 FILLER_47_167
*1434 FILLER_47_169
*1435 FILLER_47_181
*1436 FILLER_47_193
*1437 FILLER_47_205
*1438 FILLER_47_217
*1439 FILLER_47_223
*1440 FILLER_47_225
*1441 FILLER_47_237
*1442 FILLER_47_249
*1443 FILLER_47_261
*1444 FILLER_47_27
*1445 FILLER_47_273
*1446 FILLER_47_279
*1447 FILLER_47_281
*1448 FILLER_47_293
*1449 FILLER_47_3
*1450 FILLER_47_39
*1451 FILLER_47_51
*1452 FILLER_47_55
*1453 FILLER_47_57
*1454 FILLER_47_69
*1455 FILLER_47_81
*1456 FILLER_47_93
*1457 FILLER_48_109
*1458 FILLER_48_121
*1459 FILLER_48_133
*1460 FILLER_48_139
*1461 FILLER_48_141
*1462 FILLER_48_15
*1463 FILLER_48_153
*1464 FILLER_48_165
*1465 FILLER_48_177
*1466 FILLER_48_189
*1467 FILLER_48_195
*1468 FILLER_48_197
*1469 FILLER_48_209
*1470 FILLER_48_221
*1471 FILLER_48_233
*1472 FILLER_48_245
*1473 FILLER_48_251
*1474 FILLER_48_253
*1475 FILLER_48_265
*1476 FILLER_48_27
*1477 FILLER_48_277
*1478 FILLER_48_289
*1479 FILLER_48_29
*1480 FILLER_48_297
*1481 FILLER_48_3
*1482 FILLER_48_41
*1483 FILLER_48_53
*1484 FILLER_48_65
*1485 FILLER_48_77
*1486 FILLER_48_83
*1487 FILLER_48_85
*1488 FILLER_48_97
*1489 FILLER_49_105
*1490 FILLER_49_111
*1491 FILLER_49_113
*1492 FILLER_49_125
*1493 FILLER_49_137
*1494 FILLER_49_149
*1495 FILLER_49_15
*1496 FILLER_49_161
*1497 FILLER_49_167
*1498 FILLER_49_169
*1499 FILLER_49_181
*1500 FILLER_49_193
*1501 FILLER_49_205
*1502 FILLER_49_217
*1503 FILLER_49_223
*1504 FILLER_49_225
*1505 FILLER_49_237
*1506 FILLER_49_249
*1507 FILLER_49_261
*1508 FILLER_49_27
*1509 FILLER_49_273
*1510 FILLER_49_279
*1511 FILLER_49_281
*1512 FILLER_49_293
*1513 FILLER_49_3
*1514 FILLER_49_39
*1515 FILLER_49_51
*1516 FILLER_49_55
*1517 FILLER_49_57
*1518 FILLER_49_69
*1519 FILLER_49_81
*1520 FILLER_49_93
*1521 FILLER_4_109
*1522 FILLER_4_121
*1523 FILLER_4_133
*1524 FILLER_4_139
*1525 FILLER_4_141
*1526 FILLER_4_15
*1527 FILLER_4_153
*1528 FILLER_4_165
*1529 FILLER_4_177
*1530 FILLER_4_189
*1531 FILLER_4_195
*1532 FILLER_4_197
*1533 FILLER_4_209
*1534 FILLER_4_221
*1535 FILLER_4_233
*1536 FILLER_4_245
*1537 FILLER_4_251
*1538 FILLER_4_253
*1539 FILLER_4_265
*1540 FILLER_4_27
*1541 FILLER_4_277
*1542 FILLER_4_289
*1543 FILLER_4_29
*1544 FILLER_4_297
*1545 FILLER_4_3
*1546 FILLER_4_41
*1547 FILLER_4_53
*1548 FILLER_4_65
*1549 FILLER_4_77
*1550 FILLER_4_83
*1551 FILLER_4_85
*1552 FILLER_4_97
*1553 FILLER_50_109
*1554 FILLER_50_121
*1555 FILLER_50_133
*1556 FILLER_50_139
*1557 FILLER_50_141
*1558 FILLER_50_15
*1559 FILLER_50_153
*1560 FILLER_50_165
*1561 FILLER_50_177
*1562 FILLER_50_189
*1563 FILLER_50_195
*1564 FILLER_50_197
*1565 FILLER_50_209
*1566 FILLER_50_221
*1567 FILLER_50_233
*1568 FILLER_50_245
*1569 FILLER_50_251
*1570 FILLER_50_253
*1571 FILLER_50_265
*1572 FILLER_50_27
*1573 FILLER_50_277
*1574 FILLER_50_289
*1575 FILLER_50_29
*1576 FILLER_50_297
*1577 FILLER_50_3
*1578 FILLER_50_41
*1579 FILLER_50_53
*1580 FILLER_50_65
*1581 FILLER_50_77
*1582 FILLER_50_83
*1583 FILLER_50_85
*1584 FILLER_50_97
*1585 FILLER_51_105
*1586 FILLER_51_111
*1587 FILLER_51_113
*1588 FILLER_51_125
*1589 FILLER_51_137
*1590 FILLER_51_149
*1591 FILLER_51_15
*1592 FILLER_51_161
*1593 FILLER_51_167