*SPEF "ieee 1481-1999"
*DESIGN "klei22_ra"
*DATE "11:11:11 Fri 11 11, 1111"
*VENDOR "OpenRCX"
*PROGRAM "Parallel Extraction"
*VERSION "1.0"
*DESIGN_FLOW "NAME_SCOPE LOCAL" "PIN_CAP NONE"
*DIVIDER /
*DELIMITER :
*BUS_DELIMITER []
*T_UNIT 1 NS
*C_UNIT 1 PF
*R_UNIT 1 OHM
*L_UNIT 1 HENRY

*NAME_MAP
*1 io_in[0]
*2 io_in[1]
*3 io_in[2]
*4 io_in[3]
*5 io_in[4]
*6 io_in[5]
*7 io_in[6]
*8 io_in[7]
*9 io_out[0]
*10 io_out[1]
*11 io_out[2]
*12 io_out[3]
*13 io_out[4]
*14 net8
*15 net9
*16 net10
*19 _000_
*20 _001_
*21 _002_
*22 _003_
*23 _004_
*24 _005_
*25 _006_
*26 _007_
*27 _008_
*28 _009_
*29 _010_
*30 _011_
*31 _012_
*32 _013_
*33 _014_
*34 _015_
*35 _016_
*36 _017_
*37 _018_
*38 _019_
*39 _020_
*40 _021_
*41 _022_
*42 _023_
*43 _024_
*44 _025_
*45 _026_
*46 _027_
*47 _028_
*48 _029_
*49 _030_
*50 _031_
*51 _032_
*52 _033_
*53 _034_
*54 _035_
*55 _036_
*56 _037_
*57 _038_
*58 _039_
*59 _040_
*60 _041_
*61 _042_
*62 _043_
*63 _044_
*64 _045_
*65 _046_
*66 _047_
*67 _048_
*68 _049_
*69 _050_
*70 _051_
*71 _052_
*72 _053_
*73 _054_
*74 _055_
*75 _056_
*76 _057_
*77 _058_
*78 _059_
*79 _060_
*80 _061_
*81 _062_
*82 _063_
*83 _064_
*84 _065_
*85 _066_
*86 _067_
*87 _068_
*88 _069_
*89 _070_
*90 _071_
*91 _072_
*92 _073_
*93 _074_
*94 _075_
*95 _076_
*96 _077_
*97 _078_
*98 _079_
*99 _080_
*100 _081_
*101 _082_
*102 _083_
*103 _084_
*104 _085_
*105 _086_
*106 _087_
*107 _088_
*108 _089_
*109 _090_
*110 _091_
*111 _092_
*112 _093_
*113 _094_
*114 _095_
*115 _096_
*116 _097_
*117 _098_
*118 _099_
*119 _100_
*120 _101_
*121 _102_
*122 _103_
*123 _104_
*124 _105_
*125 _106_
*126 _107_
*127 _108_
*128 _109_
*129 _110_
*130 _111_
*131 _112_
*132 _113_
*133 _114_
*134 _115_
*135 _116_
*136 _117_
*137 _118_
*138 _119_
*139 _120_
*140 _121_
*141 _122_
*142 _123_
*143 _124_
*144 _125_
*145 _126_
*146 _127_
*147 _128_
*148 _129_
*149 _130_
*150 _131_
*151 _132_
*152 _133_
*153 _134_
*154 _135_
*155 _136_
*156 _137_
*157 _138_
*158 _139_
*159 _140_
*160 _141_
*161 _142_
*162 _143_
*163 _144_
*164 _145_
*165 _146_
*166 _147_
*167 _148_
*168 _149_
*169 _150_
*170 _151_
*171 _152_
*172 _153_
*173 _154_
*174 _155_
*175 _156_
*176 _157_
*177 _158_
*178 _159_
*179 _160_
*180 _161_
*181 _162_
*182 _163_
*183 _164_
*184 _165_
*185 _166_
*186 _167_
*187 _168_
*188 _169_
*189 _170_
*190 _171_
*191 _172_
*192 _173_
*193 _174_
*194 _175_
*195 _176_
*196 _177_
*197 _178_
*198 _179_
*199 _180_
*200 _181_
*201 _182_
*202 _183_
*203 _184_
*204 _185_
*205 _186_
*206 _187_
*207 _188_
*208 _189_
*209 _190_
*210 _191_
*211 clknet_0_io_in[0]
*212 clknet_2_0__leaf_io_in[0]
*213 clknet_2_1__leaf_io_in[0]
*214 clknet_2_2__leaf_io_in[0]
*215 clknet_2_3__leaf_io_in[0]
*216 net1
*217 net2
*218 net3
*219 net4
*220 net5
*221 net6
*222 net7
*223 ra_1\.ra_sum\[0\]
*224 ra_1\.ra_sum\[1\]
*225 ra_1\.ra_sum\[2\]
*226 ra_1\.ra_sum\[3\]
*227 ra_1\.ra_sum\[4\]
*228 ra_1\.ra_sum\[5\]
*229 ra_1\.ra_sum\[6\]
*230 ra_1\.ra_sum\[7\]
*231 srl_1\.data_clk_previous
*232 srl_1\.data_clk_two_previous
*233 srl_1\.o_taps\[0\]
*234 srl_1\.o_taps\[10\]
*235 srl_1\.o_taps\[11\]
*236 srl_1\.o_taps\[12\]
*237 srl_1\.o_taps\[13\]
*238 srl_1\.o_taps\[14\]
*239 srl_1\.o_taps\[15\]
*240 srl_1\.o_taps\[16\]
*241 srl_1\.o_taps\[17\]
*242 srl_1\.o_taps\[18\]
*243 srl_1\.o_taps\[19\]
*244 srl_1\.o_taps\[1\]
*245 srl_1\.o_taps\[20\]
*246 srl_1\.o_taps\[21\]
*247 srl_1\.o_taps\[22\]
*248 srl_1\.o_taps\[23\]
*249 srl_1\.o_taps\[24\]
*250 srl_1\.o_taps\[25\]
*251 srl_1\.o_taps\[26\]
*252 srl_1\.o_taps\[27\]
*253 srl_1\.o_taps\[28\]
*254 srl_1\.o_taps\[29\]
*255 srl_1\.o_taps\[2\]
*256 srl_1\.o_taps\[30\]
*257 srl_1\.o_taps\[31\]
*258 srl_1\.o_taps\[32\]
*259 srl_1\.o_taps\[33\]
*260 srl_1\.o_taps\[34\]
*261 srl_1\.o_taps\[35\]
*262 srl_1\.o_taps\[36\]
*263 srl_1\.o_taps\[37\]
*264 srl_1\.o_taps\[38\]
*265 srl_1\.o_taps\[39\]
*266 srl_1\.o_taps\[3\]
*267 srl_1\.o_taps\[40\]
*268 srl_1\.o_taps\[41\]
*269 srl_1\.o_taps\[42\]
*270 srl_1\.o_taps\[43\]
*271 srl_1\.o_taps\[44\]
*272 srl_1\.o_taps\[4\]
*273 srl_1\.o_taps\[5\]
*274 srl_1\.o_taps\[6\]
*275 srl_1\.o_taps\[7\]
*276 srl_1\.o_taps\[8\]
*277 srl_1\.o_taps\[9\]
*278 srl_1\.start_calc
*279 ANTENNA_1
*280 ANTENNA_2
*281 FILLER_0_103
*282 FILLER_0_111
*283 FILLER_0_113
*284 FILLER_0_131
*285 FILLER_0_139
*286 FILLER_0_141
*287 FILLER_0_153
*288 FILLER_0_165
*289 FILLER_0_169
*290 FILLER_0_181
*291 FILLER_0_193
*292 FILLER_0_197
*293 FILLER_0_209
*294 FILLER_0_221
*295 FILLER_0_225
*296 FILLER_0_237
*297 FILLER_0_249
*298 FILLER_0_253
*299 FILLER_0_26
*300 FILLER_0_265
*301 FILLER_0_277
*302 FILLER_0_281
*303 FILLER_0_29
*304 FILLER_0_293
*305 FILLER_0_3
*306 FILLER_0_47
*307 FILLER_0_55
*308 FILLER_0_57
*309 FILLER_0_79
*310 FILLER_0_8
*311 FILLER_0_83
*312 FILLER_0_85
*313 FILLER_10_103
*314 FILLER_10_112
*315 FILLER_10_124
*316 FILLER_10_130
*317 FILLER_10_138
*318 FILLER_10_141
*319 FILLER_10_153
*320 FILLER_10_165
*321 FILLER_10_177
*322 FILLER_10_189
*323 FILLER_10_195
*324 FILLER_10_197
*325 FILLER_10_209
*326 FILLER_10_21
*327 FILLER_10_221
*328 FILLER_10_233
*329 FILLER_10_245
*330 FILLER_10_251
*331 FILLER_10_253
*332 FILLER_10_265
*333 FILLER_10_27
*334 FILLER_10_277
*335 FILLER_10_289
*336 FILLER_10_29
*337 FILLER_10_297
*338 FILLER_10_3
*339 FILLER_10_41
*340 FILLER_10_65
*341 FILLER_10_73
*342 FILLER_10_82
*343 FILLER_10_85
*344 FILLER_10_95
*345 FILLER_11_108
*346 FILLER_11_113
*347 FILLER_11_123
*348 FILLER_11_132
*349 FILLER_11_144
*350 FILLER_11_156
*351 FILLER_11_169
*352 FILLER_11_181
*353 FILLER_11_193
*354 FILLER_11_205
*355 FILLER_11_217
*356 FILLER_11_223
*357 FILLER_11_225
*358 FILLER_11_237
*359 FILLER_11_249
*360 FILLER_11_26
*361 FILLER_11_261
*362 FILLER_11_273
*363 FILLER_11_279
*364 FILLER_11_281
*365 FILLER_11_293
*366 FILLER_11_3
*367 FILLER_11_34
*368 FILLER_11_51
*369 FILLER_11_55
*370 FILLER_11_57
*371 FILLER_11_76
*372 FILLER_11_9
*373 FILLER_11_96
*374 FILLER_12_102
*375 FILLER_12_110
*376 FILLER_12_126
*377 FILLER_12_135
*378 FILLER_12_139
*379 FILLER_12_141
*380 FILLER_12_153
*381 FILLER_12_165
*382 FILLER_12_177
*383 FILLER_12_189
*384 FILLER_12_195
*385 FILLER_12_197
*386 FILLER_12_209
*387 FILLER_12_221
*388 FILLER_12_233
*389 FILLER_12_245
*390 FILLER_12_25
*391 FILLER_12_251
*392 FILLER_12_253
*393 FILLER_12_265
*394 FILLER_12_277
*395 FILLER_12_289
*396 FILLER_12_29
*397 FILLER_12_297
*398 FILLER_12_3
*399 FILLER_12_41
*400 FILLER_12_65
*401 FILLER_12_71
*402 FILLER_12_77
*403 FILLER_12_83
*404 FILLER_12_85
*405 FILLER_12_93
*406 FILLER_13_100
*407 FILLER_13_108
*408 FILLER_13_113
*409 FILLER_13_120
*410 FILLER_13_132
*411 FILLER_13_144
*412 FILLER_13_156
*413 FILLER_13_169
*414 FILLER_13_181
*415 FILLER_13_193
*416 FILLER_13_205
*417 FILLER_13_217
*418 FILLER_13_223
*419 FILLER_13_225
*420 FILLER_13_237
*421 FILLER_13_249
*422 FILLER_13_261
*423 FILLER_13_273
*424 FILLER_13_279
*425 FILLER_13_281
*426 FILLER_13_293
*427 FILLER_13_3
*428 FILLER_13_32
*429 FILLER_13_52
*430 FILLER_13_57
*431 FILLER_13_76
*432 FILLER_13_8
*433 FILLER_13_82
*434 FILLER_13_91
*435 FILLER_14_101
*436 FILLER_14_106
*437 FILLER_14_114
*438 FILLER_14_125
*439 FILLER_14_137
*440 FILLER_14_141
*441 FILLER_14_153
*442 FILLER_14_165
*443 FILLER_14_177
*444 FILLER_14_189
*445 FILLER_14_195
*446 FILLER_14_197
*447 FILLER_14_209
*448 FILLER_14_21
*449 FILLER_14_221
*450 FILLER_14_233
*451 FILLER_14_245
*452 FILLER_14_251
*453 FILLER_14_253
*454 FILLER_14_265
*455 FILLER_14_27
*456 FILLER_14_277
*457 FILLER_14_289
*458 FILLER_14_29
*459 FILLER_14_297
*460 FILLER_14_3
*461 FILLER_14_47
*462 FILLER_14_59
*463 FILLER_14_76
*464 FILLER_14_85
*465 FILLER_14_95
*466 FILLER_15_103
*467 FILLER_15_110
*468 FILLER_15_113
*469 FILLER_15_123
*470 FILLER_15_132
*471 FILLER_15_144
*472 FILLER_15_156
*473 FILLER_15_16
*474 FILLER_15_169
*475 FILLER_15_181
*476 FILLER_15_193
*477 FILLER_15_205
*478 FILLER_15_217
*479 FILLER_15_223
*480 FILLER_15_225
*481 FILLER_15_237
*482 FILLER_15_249
*483 FILLER_15_261
*484 FILLER_15_273
*485 FILLER_15_279
*486 FILLER_15_281
*487 FILLER_15_293
*488 FILLER_15_3
*489 FILLER_15_34
*490 FILLER_15_54
*491 FILLER_15_57
*492 FILLER_15_63
*493 FILLER_15_8
*494 FILLER_15_80
*495 FILLER_15_86
*496 FILLER_15_95
*497 FILLER_16_100
*498 FILLER_16_109
*499 FILLER_16_117
*500 FILLER_16_122
*501 FILLER_16_131
*502 FILLER_16_139
*503 FILLER_16_141
*504 FILLER_16_153
*505 FILLER_16_165
*506 FILLER_16_177
*507 FILLER_16_189
*508 FILLER_16_195
*509 FILLER_16_197
*510 FILLER_16_209
*511 FILLER_16_221
*512 FILLER_16_233
*513 FILLER_16_245
*514 FILLER_16_251
*515 FILLER_16_253
*516 FILLER_16_26
*517 FILLER_16_265
*518 FILLER_16_277
*519 FILLER_16_289
*520 FILLER_16_29
*521 FILLER_16_297
*522 FILLER_16_3
*523 FILLER_16_41
*524 FILLER_16_60
*525 FILLER_16_80
*526 FILLER_16_85
*527 FILLER_16_9
*528 FILLER_16_91
*529 FILLER_17_103
*530 FILLER_17_111
*531 FILLER_17_113
*532 FILLER_17_119
*533 FILLER_17_127
*534 FILLER_17_136
*535 FILLER_17_148
*536 FILLER_17_160
*537 FILLER_17_169
*538 FILLER_17_181
*539 FILLER_17_193
*540 FILLER_17_205
*541 FILLER_17_21
*542 FILLER_17_217
*543 FILLER_17_223
*544 FILLER_17_225
*545 FILLER_17_237
*546 FILLER_17_249
*547 FILLER_17_261
*548 FILLER_17_273
*549 FILLER_17_279
*550 FILLER_17_281
*551 FILLER_17_293
*552 FILLER_17_3
*553 FILLER_17_45
*554 FILLER_17_53
*555 FILLER_17_57
*556 FILLER_17_79
*557 FILLER_17_91
*558 FILLER_18_106
*559 FILLER_18_114
*560 FILLER_18_125
*561 FILLER_18_138
*562 FILLER_18_141
*563 FILLER_18_153
*564 FILLER_18_165
*565 FILLER_18_177
*566 FILLER_18_189
*567 FILLER_18_195
*568 FILLER_18_197
*569 FILLER_18_209
*570 FILLER_18_21
*571 FILLER_18_221
*572 FILLER_18_233
*573 FILLER_18_245
*574 FILLER_18_25
*575 FILLER_18_251
*576 FILLER_18_253
*577 FILLER_18_265
*578 FILLER_18_277
*579 FILLER_18_289
*580 FILLER_18_29
*581 FILLER_18_297
*582 FILLER_18_3
*583 FILLER_18_41
*584 FILLER_18_61
*585 FILLER_18_73
*586 FILLER_18_81
*587 FILLER_18_85
*588 FILLER_18_89
*589 FILLER_18_94
*590 FILLER_19_102
*591 FILLER_19_110
*592 FILLER_19_113
*593 FILLER_19_127
*594 FILLER_19_139
*595 FILLER_19_151
*596 FILLER_19_163
*597 FILLER_19_167
*598 FILLER_19_169
*599 FILLER_19_181
*600 FILLER_19_193
*601 FILLER_19_20
*602 FILLER_19_205
*603 FILLER_19_217
*604 FILLER_19_223
*605 FILLER_19_225
*606 FILLER_19_237
*607 FILLER_19_249
*608 FILLER_19_261
*609 FILLER_19_273
*610 FILLER_19_279
*611 FILLER_19_281
*612 FILLER_19_293
*613 FILLER_19_3
*614 FILLER_19_44
*615 FILLER_19_57
*616 FILLER_19_74
*617 FILLER_19_8
*618 FILLER_19_86
*619 FILLER_1_108
*620 FILLER_1_113
*621 FILLER_1_129
*622 FILLER_1_138
*623 FILLER_1_145
*624 FILLER_1_15
*625 FILLER_1_157
*626 FILLER_1_165
*627 FILLER_1_169
*628 FILLER_1_181
*629 FILLER_1_193
*630 FILLER_1_205
*631 FILLER_1_217
*632 FILLER_1_223
*633 FILLER_1_225
*634 FILLER_1_237
*635 FILLER_1_249
*636 FILLER_1_261
*637 FILLER_1_273
*638 FILLER_1_279
*639 FILLER_1_281
*640 FILLER_1_293
*641 FILLER_1_3
*642 FILLER_1_34
*643 FILLER_1_54
*644 FILLER_1_57
*645 FILLER_1_61
*646 FILLER_1_79
*647 FILLER_1_99
*648 FILLER_20_100
*649 FILLER_20_106
*650 FILLER_20_115
*651 FILLER_20_119
*652 FILLER_20_128
*653 FILLER_20_141
*654 FILLER_20_148
*655 FILLER_20_16
*656 FILLER_20_160
*657 FILLER_20_172
*658 FILLER_20_184
*659 FILLER_20_197
*660 FILLER_20_20
*661 FILLER_20_209
*662 FILLER_20_221
*663 FILLER_20_233
*664 FILLER_20_245
*665 FILLER_20_251
*666 FILLER_20_253
*667 FILLER_20_26
*668 FILLER_20_265
*669 FILLER_20_277
*670 FILLER_20_289
*671 FILLER_20_29
*672 FILLER_20_297
*673 FILLER_20_3
*674 FILLER_20_36
*675 FILLER_20_43
*676 FILLER_20_55
*677 FILLER_20_63
*678 FILLER_20_69
*679 FILLER_20_7
*680 FILLER_20_75
*681 FILLER_20_82
*682 FILLER_20_85
*683 FILLER_20_92
*684 FILLER_21_101
*685 FILLER_21_110
*686 FILLER_21_113
*687 FILLER_21_12
*688 FILLER_21_126
*689 FILLER_21_133
*690 FILLER_21_145
*691 FILLER_21_157
*692 FILLER_21_165
*693 FILLER_21_169
*694 FILLER_21_181
*695 FILLER_21_193
*696 FILLER_21_205
*697 FILLER_21_217
*698 FILLER_21_223
*699 FILLER_21_225
*700 FILLER_21_237
*701 FILLER_21_24
*702 FILLER_21_249
*703 FILLER_21_261
*704 FILLER_21_273
*705 FILLER_21_279
*706 FILLER_21_281
*707 FILLER_21_293
*708 FILLER_21_3
*709 FILLER_21_36
*710 FILLER_21_48
*711 FILLER_21_57
*712 FILLER_21_67
*713 FILLER_21_75
*714 FILLER_21_82
*715 FILLER_21_93
*716 FILLER_22_102
*717 FILLER_22_114
*718 FILLER_22_123
*719 FILLER_22_13
*720 FILLER_22_135
*721 FILLER_22_139
*722 FILLER_22_141
*723 FILLER_22_153
*724 FILLER_22_165
*725 FILLER_22_177
*726 FILLER_22_189
*727 FILLER_22_195
*728 FILLER_22_197
*729 FILLER_22_209
*730 FILLER_22_21
*731 FILLER_22_221
*732 FILLER_22_233
*733 FILLER_22_245
*734 FILLER_22_25
*735 FILLER_22_251
*736 FILLER_22_253
*737 FILLER_22_265
*738 FILLER_22_277
*739 FILLER_22_289
*740 FILLER_22_29
*741 FILLER_22_297
*742 FILLER_22_3
*743 FILLER_22_36
*744 FILLER_22_48
*745 FILLER_22_56
*746 FILLER_22_62
*747 FILLER_22_75
*748 FILLER_22_82
*749 FILLER_22_85
*750 FILLER_22_93
*751 FILLER_23_103
*752 FILLER_23_110
*753 FILLER_23_113
*754 FILLER_23_129
*755 FILLER_23_141
*756 FILLER_23_153
*757 FILLER_23_165
*758 FILLER_23_169
*759 FILLER_23_17
*760 FILLER_23_181
*761 FILLER_23_193
*762 FILLER_23_205
*763 FILLER_23_217
*764 FILLER_23_223
*765 FILLER_23_225
*766 FILLER_23_237
*767 FILLER_23_249
*768 FILLER_23_261
*769 FILLER_23_273
*770 FILLER_23_279
*771 FILLER_23_281
*772 FILLER_23_293
*773 FILLER_23_3
*774 FILLER_23_34
*775 FILLER_23_45
*776 FILLER_23_54
*777 FILLER_23_57
*778 FILLER_23_67
*779 FILLER_23_75
*780 FILLER_23_85
*781 FILLER_23_95
*782 FILLER_24_105
*783 FILLER_24_109
*784 FILLER_24_118
*785 FILLER_24_13
*786 FILLER_24_130
*787 FILLER_24_138
*788 FILLER_24_141
*789 FILLER_24_153
*790 FILLER_24_165
*791 FILLER_24_177
*792 FILLER_24_189
*793 FILLER_24_195
*794 FILLER_24_197
*795 FILLER_24_209
*796 FILLER_24_221
*797 FILLER_24_233
*798 FILLER_24_245
*799 FILLER_24_25
*800 FILLER_24_251
*801 FILLER_24_253
*802 FILLER_24_265
*803 FILLER_24_277
*804 FILLER_24_289
*805 FILLER_24_29
*806 FILLER_24_297
*807 FILLER_24_3
*808 FILLER_24_37
*809 FILLER_24_49
*810 FILLER_24_57
*811 FILLER_24_61
*812 FILLER_24_65
*813 FILLER_24_74
*814 FILLER_24_82
*815 FILLER_24_85
*816 FILLER_24_90
*817 FILLER_24_94
*818 FILLER_25_101
*819 FILLER_25_109
*820 FILLER_25_113
*821 FILLER_25_125
*822 FILLER_25_137
*823 FILLER_25_149
*824 FILLER_25_161
*825 FILLER_25_167
*826 FILLER_25_169
*827 FILLER_25_181
*828 FILLER_25_193
*829 FILLER_25_205
*830 FILLER_25_217
*831 FILLER_25_223
*832 FILLER_25_225
*833 FILLER_25_23
*834 FILLER_25_237
*835 FILLER_25_249
*836 FILLER_25_261
*837 FILLER_25_273
*838 FILLER_25_279
*839 FILLER_25_281
*840 FILLER_25_293
*841 FILLER_25_3
*842 FILLER_25_31
*843 FILLER_25_39
*844 FILLER_25_49
*845 FILLER_25_55
*846 FILLER_25_57
*847 FILLER_25_63
*848 FILLER_25_69
*849 FILLER_25_78
*850 FILLER_25_8
*851 FILLER_25_87
*852 FILLER_25_94
*853 FILLER_26_105
*854 FILLER_26_112
*855 FILLER_26_124
*856 FILLER_26_136
*857 FILLER_26_141
*858 FILLER_26_15
*859 FILLER_26_153
*860 FILLER_26_165
*861 FILLER_26_177
*862 FILLER_26_189
*863 FILLER_26_195
*864 FILLER_26_197
*865 FILLER_26_209
*866 FILLER_26_221
*867 FILLER_26_233
*868 FILLER_26_245
*869 FILLER_26_251
*870 FILLER_26_253
*871 FILLER_26_265
*872 FILLER_26_27
*873 FILLER_26_277
*874 FILLER_26_289
*875 FILLER_26_29
*876 FILLER_26_297
*877 FILLER_26_3
*878 FILLER_26_36
*879 FILLER_26_43
*880 FILLER_26_53
*881 FILLER_26_64
*882 FILLER_26_77
*883 FILLER_26_83
*884 FILLER_26_85
*885 FILLER_26_96
*886 FILLER_27_109
*887 FILLER_27_113
*888 FILLER_27_124
*889 FILLER_27_136
*890 FILLER_27_148
*891 FILLER_27_160
*892 FILLER_27_169
*893 FILLER_27_181
*894 FILLER_27_193
*895 FILLER_27_20
*896 FILLER_27_205
*897 FILLER_27_217
*898 FILLER_27_223
*899 FILLER_27_225
*900 FILLER_27_237
*901 FILLER_27_249
*902 FILLER_27_261
*903 FILLER_27_273
*904 FILLER_27_279
*905 FILLER_27_281
*906 FILLER_27_293
*907 FILLER_27_3
*908 FILLER_27_31
*909 FILLER_27_40
*910 FILLER_27_48
*911 FILLER_27_57
*912 FILLER_27_67
*913 FILLER_27_73
*914 FILLER_27_8
*915 FILLER_27_80
*916 FILLER_27_96
*917 FILLER_28_107
*918 FILLER_28_113
*919 FILLER_28_125
*920 FILLER_28_137
*921 FILLER_28_141
*922 FILLER_28_15
*923 FILLER_28_153
*924 FILLER_28_165
*925 FILLER_28_177
*926 FILLER_28_189
*927 FILLER_28_195
*928 FILLER_28_197
*929 FILLER_28_209
*930 FILLER_28_221
*931 FILLER_28_233
*932 FILLER_28_245
*933 FILLER_28_251
*934 FILLER_28_253
*935 FILLER_28_26
*936 FILLER_28_265
*937 FILLER_28_277
*938 FILLER_28_289
*939 FILLER_28_29
*940 FILLER_28_297
*941 FILLER_28_3
*942 FILLER_28_46
*943 FILLER_28_57
*944 FILLER_28_71
*945 FILLER_28_82
*946 FILLER_28_85
*947 FILLER_28_99
*948 FILLER_29_107
*949 FILLER_29_111
*950 FILLER_29_113
*951 FILLER_29_125
*952 FILLER_29_137
*953 FILLER_29_141
*954 FILLER_29_147
*955 FILLER_29_15
*956 FILLER_29_159
*957 FILLER_29_167
*958 FILLER_29_169
*959 FILLER_29_181
*960 FILLER_29_193
*961 FILLER_29_205
*962 FILLER_29_217
*963 FILLER_29_223
*964 FILLER_29_225
*965 FILLER_29_237
*966 FILLER_29_249
*967 FILLER_29_261
*968 FILLER_29_27
*969 FILLER_29_273
*970 FILLER_29_279
*971 FILLER_29_281
*972 FILLER_29_293
*973 FILLER_29_3
*974 FILLER_29_33
*975 FILLER_29_37
*976 FILLER_29_49
*977 FILLER_29_54
*978 FILLER_29_57
*979 FILLER_29_65
*980 FILLER_29_73
*981 FILLER_29_83
*982 FILLER_29_95
*983 FILLER_2_103
*984 FILLER_2_115
*985 FILLER_2_127
*986 FILLER_2_136
*987 FILLER_2_141
*988 FILLER_2_153
*989 FILLER_2_165
*990 FILLER_2_177
*991 FILLER_2_189
*992 FILLER_2_195
*993 FILLER_2_197
*994 FILLER_2_209
*995 FILLER_2_221
*996 FILLER_2_233
*997 FILLER_2_245
*998 FILLER_2_251
*999 FILLER_2_253
*1000 FILLER_2_26
*1001 FILLER_2_265
*1002 FILLER_2_277
*1003 FILLER_2_289
*1004 FILLER_2_29
*1005 FILLER_2_297
*1006 FILLER_2_3
*1007 FILLER_2_41
*1008 FILLER_2_65
*1009 FILLER_2_73
*1010 FILLER_2_82
*1011 FILLER_2_85
*1012 FILLER_2_9
*1013 FILLER_30_109
*1014 FILLER_30_121
*1015 FILLER_30_133
*1016 FILLER_30_139
*1017 FILLER_30_141
*1018 FILLER_30_15
*1019 FILLER_30_153
*1020 FILLER_30_165
*1021 FILLER_30_177
*1022 FILLER_30_189
*1023 FILLER_30_195
*1024 FILLER_30_197
*1025 FILLER_30_209
*1026 FILLER_30_221
*1027 FILLER_30_233
*1028 FILLER_30_245
*1029 FILLER_30_251
*1030 FILLER_30_253
*1031 FILLER_30_265
*1032 FILLER_30_27
*1033 FILLER_30_277
*1034 FILLER_30_289
*1035 FILLER_30_29
*1036 FILLER_30_297
*1037 FILLER_30_3
*1038 FILLER_30_44
*1039 FILLER_30_48
*1040 FILLER_30_54
*1041 FILLER_30_60
*1042 FILLER_30_68
*1043 FILLER_30_78
*1044 FILLER_30_85
*1045 FILLER_30_97
*1046 FILLER_31_10
*1047 FILLER_31_111
*1048 FILLER_31_113
*1049 FILLER_31_125
*1050 FILLER_31_137
*1051 FILLER_31_149
*1052 FILLER_31_161
*1053 FILLER_31_167
*1054 FILLER_31_169
*1055 FILLER_31_181
*1056 FILLER_31_193
*1057 FILLER_31_205
*1058 FILLER_31_217
*1059 FILLER_31_22
*1060 FILLER_31_223
*1061 FILLER_31_225
*1062 FILLER_31_237
*1063 FILLER_31_249
*1064 FILLER_31_261
*1065 FILLER_31_273
*1066 FILLER_31_279
*1067 FILLER_31_281
*1068 FILLER_31_293
*1069 FILLER_31_3
*1070 FILLER_31_30
*1071 FILLER_31_35
*1072 FILLER_31_39
*1073 FILLER_31_49
*1074 FILLER_31_55
*1075 FILLER_31_57
*1076 FILLER_31_65
*1077 FILLER_31_71
*1078 FILLER_31_75
*1079 FILLER_31_87
*1080 FILLER_31_99
*1081 FILLER_32_108
*1082 FILLER_32_112
*1083 FILLER_32_117
*1084 FILLER_32_129
*1085 FILLER_32_137
*1086 FILLER_32_14
*1087 FILLER_32_141
*1088 FILLER_32_153
*1089 FILLER_32_165
*1090 FILLER_32_177
*1091 FILLER_32_189
*1092 FILLER_32_195
*1093 FILLER_32_197
*1094 FILLER_32_209
*1095 FILLER_32_221
*1096 FILLER_32_233
*1097 FILLER_32_245
*1098 FILLER_32_251
*1099 FILLER_32_253
*1100 FILLER_32_26
*1101 FILLER_32_265
*1102 FILLER_32_277
*1103 FILLER_32_289
*1104 FILLER_32_29
*1105 FILLER_32_297
*1106 FILLER_32_3
*1107 FILLER_32_37
*1108 FILLER_32_42
*1109 FILLER_32_46
*1110 FILLER_32_55
*1111 FILLER_32_63
*1112 FILLER_32_76
*1113 FILLER_32_85
*1114 FILLER_32_9
*1115 FILLER_32_91
*1116 FILLER_32_96
*1117 FILLER_33_104
*1118 FILLER_33_11
*1119 FILLER_33_113
*1120 FILLER_33_126
*1121 FILLER_33_138
*1122 FILLER_33_150
*1123 FILLER_33_162
*1124 FILLER_33_169
*1125 FILLER_33_181
*1126 FILLER_33_193
*1127 FILLER_33_205
*1128 FILLER_33_217
*1129 FILLER_33_223
*1130 FILLER_33_225
*1131 FILLER_33_23
*1132 FILLER_33_237
*1133 FILLER_33_249
*1134 FILLER_33_261
*1135 FILLER_33_273
*1136 FILLER_33_279
*1137 FILLER_33_281
*1138 FILLER_33_293
*1139 FILLER_33_3
*1140 FILLER_33_30
*1141 FILLER_33_43
*1142 FILLER_33_47
*1143 FILLER_33_54
*1144 FILLER_33_57
*1145 FILLER_33_63
*1146 FILLER_33_70
*1147 FILLER_33_85
*1148 FILLER_33_92
*1149 FILLER_34_110
*1150 FILLER_34_122
*1151 FILLER_34_134
*1152 FILLER_34_141
*1153 FILLER_34_15
*1154 FILLER_34_153
*1155 FILLER_34_165
*1156 FILLER_34_177
*1157 FILLER_34_189
*1158 FILLER_34_195
*1159 FILLER_34_197
*1160 FILLER_34_209
*1161 FILLER_34_221
*1162 FILLER_34_233
*1163 FILLER_34_245
*1164 FILLER_34_251
*1165 FILLER_34_253
*1166 FILLER_34_265
*1167 FILLER_34_27
*1168 FILLER_34_277
*1169 FILLER_34_289
*1170 FILLER_34_29
*1171 FILLER_34_297
*1172 FILLER_34_3
*1173 FILLER_34_35
*1174 FILLER_34_42
*1175 FILLER_34_49
*1176 FILLER_34_53
*1177 FILLER_34_62
*1178 FILLER_34_74
*1179 FILLER_34_82
*1180 FILLER_34_85
*1181 FILLER_34_98
*1182 FILLER_35_111
*1183 FILLER_35_113
*1184 FILLER_35_125
*1185 FILLER_35_137
*1186 FILLER_35_149
*1187 FILLER_35_15
*1188 FILLER_35_161
*1189 FILLER_35_167
*1190 FILLER_35_169
*1191 FILLER_35_181
*1192 FILLER_35_193
*1193 FILLER_35_205
*1194 FILLER_35_217
*1195 FILLER_35_223
*1196 FILLER_35_225
*1197 FILLER_35_23
*1198 FILLER_35_237
*1199 FILLER_35_249
*1200 FILLER_35_261
*1201 FILLER_35_273
*1202 FILLER_35_279
*1203 FILLER_35_281
*1204 FILLER_35_293
*1205 FILLER_35_3
*1206 FILLER_35_30
*1207 FILLER_35_41
*1208 FILLER_35_49
*1209 FILLER_35_54
*1210 FILLER_35_57
*1211 FILLER_35_64
*1212 FILLER_35_75
*1213 FILLER_35_87
*1214 FILLER_35_99
*1215 FILLER_36_109
*1216 FILLER_36_121
*1217 FILLER_36_133
*1218 FILLER_36_139
*1219 FILLER_36_141
*1220 FILLER_36_15
*1221 FILLER_36_153
*1222 FILLER_36_165
*1223 FILLER_36_177
*1224 FILLER_36_189
*1225 FILLER_36_195
*1226 FILLER_36_197
*1227 FILLER_36_209
*1228 FILLER_36_221
*1229 FILLER_36_233
*1230 FILLER_36_245
*1231 FILLER_36_251
*1232 FILLER_36_253
*1233 FILLER_36_265
*1234 FILLER_36_27
*1235 FILLER_36_277
*1236 FILLER_36_289
*1237 FILLER_36_29
*1238 FILLER_36_297
*1239 FILLER_36_3
*1240 FILLER_36_38
*1241 FILLER_36_50
*1242 FILLER_36_62
*1243 FILLER_36_74
*1244 FILLER_36_82
*1245 FILLER_36_85
*1246 FILLER_36_89
*1247 FILLER_36_97
*1248 FILLER_37_102
*1249 FILLER_37_110
*1250 FILLER_37_113
*1251 FILLER_37_125
*1252 FILLER_37_137
*1253 FILLER_37_149
*1254 FILLER_37_15
*1255 FILLER_37_161
*1256 FILLER_37_167
*1257 FILLER_37_169
*1258 FILLER_37_181
*1259 FILLER_37_193
*1260 FILLER_37_205
*1261 FILLER_37_217
*1262 FILLER_37_223
*1263 FILLER_37_225
*1264 FILLER_37_237
*1265 FILLER_37_249
*1266 FILLER_37_261
*1267 FILLER_37_27
*1268 FILLER_37_273
*1269 FILLER_37_279
*1270 FILLER_37_281
*1271 FILLER_37_293
*1272 FILLER_37_3
*1273 FILLER_37_39
*1274 FILLER_37_51
*1275 FILLER_37_55
*1276 FILLER_37_57
*1277 FILLER_37_66
*1278 FILLER_37_78
*1279 FILLER_37_90
*1280 FILLER_38_109
*1281 FILLER_38_121
*1282 FILLER_38_133
*1283 FILLER_38_139
*1284 FILLER_38_141
*1285 FILLER_38_15
*1286 FILLER_38_153
*1287 FILLER_38_165
*1288 FILLER_38_177
*1289 FILLER_38_189
*1290 FILLER_38_195
*1291 FILLER_38_197
*1292 FILLER_38_209
*1293 FILLER_38_221
*1294 FILLER_38_233
*1295 FILLER_38_245
*1296 FILLER_38_251
*1297 FILLER_38_253
*1298 FILLER_38_265
*1299 FILLER_38_27
*1300 FILLER_38_277
*1301 FILLER_38_289
*1302 FILLER_38_29
*1303 FILLER_38_297
*1304 FILLER_38_3
*1305 FILLER_38_41
*1306 FILLER_38_48
*1307 FILLER_38_60
*1308 FILLER_38_72
*1309 FILLER_38_85
*1310 FILLER_38_97
*1311 FILLER_39_105
*1312 FILLER_39_111
*1313 FILLER_39_113
*1314 FILLER_39_12
*1315 FILLER_39_125
*1316 FILLER_39_137
*1317 FILLER_39_149
*1318 FILLER_39_161
*1319 FILLER_39_167
*1320 FILLER_39_169
*1321 FILLER_39_181
*1322 FILLER_39_193
*1323 FILLER_39_205
*1324 FILLER_39_217
*1325 FILLER_39_223
*1326 FILLER_39_225
*1327 FILLER_39_237
*1328 FILLER_39_24
*1329 FILLER_39_249
*1330 FILLER_39_261
*1331 FILLER_39_273
*1332 FILLER_39_279
*1333 FILLER_39_281
*1334 FILLER_39_293
*1335 FILLER_39_3
*1336 FILLER_39_32
*1337 FILLER_39_43
*1338 FILLER_39_55
*1339 FILLER_39_57
*1340 FILLER_39_69
*1341 FILLER_39_7
*1342 FILLER_39_81
*1343 FILLER_39_93
*1344 FILLER_3_110
*1345 FILLER_3_113
*1346 FILLER_3_123
*1347 FILLER_3_135
*1348 FILLER_3_147
*1349 FILLER_3_15
*1350 FILLER_3_159
*1351 FILLER_3_167
*1352 FILLER_3_169
*1353 FILLER_3_181
*1354 FILLER_3_193
*1355 FILLER_3_205
*1356 FILLER_3_217
*1357 FILLER_3_223
*1358 FILLER_3_225
*1359 FILLER_3_237
*1360 FILLER_3_249
*1361 FILLER_3_261
*1362 FILLER_3_273
*1363 FILLER_3_279
*1364 FILLER_3_281
*1365 FILLER_3_293
*1366 FILLER_3_3
*1367 FILLER_3_36
*1368 FILLER_3_48
*1369 FILLER_3_57
*1370 FILLER_3_79
*1371 FILLER_3_99
*1372 FILLER_40_109
*1373 FILLER_40_121
*1374 FILLER_40_133
*1375 FILLER_40_139
*1376 FILLER_40_141
*1377 FILLER_40_15
*1378 FILLER_40_153
*1379 FILLER_40_165
*1380 FILLER_40_177
*1381 FILLER_40_189
*1382 FILLER_40_195
*1383 FILLER_40_197
*1384 FILLER_40_209
*1385 FILLER_40_221
*1386 FILLER_40_233
*1387 FILLER_40_245
*1388 FILLER_40_251
*1389 FILLER_40_253
*1390 FILLER_40_265
*1391 FILLER_40_27
*1392 FILLER_40_277
*1393 FILLER_40_289
*1394 FILLER_40_29
*1395 FILLER_40_297
*1396 FILLER_40_3
*1397 FILLER_40_34
*1398 FILLER_40_46
*1399 FILLER_40_58
*1400 FILLER_40_70
*1401 FILLER_40_82
*1402 FILLER_40_85
*1403 FILLER_40_97
*1404 FILLER_41_105
*1405 FILLER_41_111
*1406 FILLER_41_113
*1407 FILLER_41_125
*1408 FILLER_41_137
*1409 FILLER_41_149
*1410 FILLER_41_15
*1411 FILLER_41_161
*1412 FILLER_41_167
*1413 FILLER_41_169
*1414 FILLER_41_181
*1415 FILLER_41_193
*1416 FILLER_41_205
*1417 FILLER_41_217
*1418 FILLER_41_223
*1419 FILLER_41_225
*1420 FILLER_41_237
*1421 FILLER_41_249
*1422 FILLER_41_261
*1423 FILLER_41_27
*1424 FILLER_41_273
*1425 FILLER_41_279
*1426 FILLER_41_281
*1427 FILLER_41_293
*1428 FILLER_41_3
*1429 FILLER_41_39
*1430 FILLER_41_51
*1431 FILLER_41_55
*1432 FILLER_41_57
*1433 FILLER_41_69
*1434 FILLER_41_81
*1435 FILLER_41_93
*1436 FILLER_42_109
*1437 FILLER_42_121
*1438 FILLER_42_133
*1439 FILLER_42_139
*1440 FILLER_42_141
*1441 FILLER_42_153
*1442 FILLER_42_165
*1443 FILLER_42_177
*1444 FILLER_42_189
*1445 FILLER_42_195
*1446 FILLER_42_197
*1447 FILLER_42_209
*1448 FILLER_42_21
*1449 FILLER_42_221
*1450 FILLER_42_233
*1451 FILLER_42_245
*1452 FILLER_42_251
*1453 FILLER_42_253
*1454 FILLER_42_265
*1455 FILLER_42_27
*1456 FILLER_42_277
*1457 FILLER_42_289
*1458 FILLER_42_29
*1459 FILLER_42_297
*1460 FILLER_42_3
*1461 FILLER_42_41
*1462 FILLER_42_53
*1463 FILLER_42_65
*1464 FILLER_42_77
*1465 FILLER_42_83
*1466 FILLER_42_85
*1467 FILLER_42_9
*1468 FILLER_42_97
*1469 FILLER_43_105
*1470 FILLER_43_111
*1471 FILLER_43_113
*1472 FILLER_43_125
*1473 FILLER_43_137
*1474 FILLER_43_149
*1475 FILLER_43_15
*1476 FILLER_43_161
*1477 FILLER_43_167
*1478 FILLER_43_169
*1479 FILLER_43_181
*1480 FILLER_43_193
*1481 FILLER_43_205
*1482 FILLER_43_217
*1483 FILLER_43_223
*1484 FILLER_43_225
*1485 FILLER_43_237
*1486 FILLER_43_249
*1487 FILLER_43_261
*1488 FILLER_43_27
*1489 FILLER_43_273
*1490 FILLER_43_279
*1491 FILLER_43_281
*1492 FILLER_43_293
*1493 FILLER_43_3
*1494 FILLER_43_39
*1495 FILLER_43_51
*1496 FILLER_43_55
*1497 FILLER_43_57
*1498 FILLER_43_69
*1499 FILLER_43_81
*1500 FILLER_43_93
*1501 FILLER_44_109
*1502 FILLER_44_121
*1503 FILLER_44_133
*1504 FILLER_44_139
*1505 FILLER_44_141
*1506 FILLER_44_15
*1507 FILLER_44_153
*1508 FILLER_44_165
*1509 FILLER_44_177
*1510 FILLER_44_189
*1511 FILLER_44_195
*1512 FILLER_44_197
*1513 FILLER_44_209
*1514 FILLER_44_221
*1515 FILLER_44_233
*1516 FILLER_44_245
*1517 FILLER_44_251
*1518 FILLER_44_253
*1519 FILLER_44_265
*1520 FILLER_44_27
*1521 FILLER_44_277
*1522 FILLER_44_289
*1523 FILLER_44_29
*1524 FILLER_44_297
*1525 FILLER_44_3
*1526 FILLER_44_41
*1527 FILLER_44_53
*1528 FILLER_44_65
*1529 FILLER_44_77
*1530 FILLER_44_83
*1531 FILLER_44_85
*1532 FILLER_44_97
*1533 FILLER_45_105
*1534 FILLER_45_111
*1535 FILLER_45_113
*1536 FILLER_45_125
*1537 FILLER_45_137
*1538 FILLER_45_149
*1539 FILLER_45_15
*1540 FILLER_45_161
*1541 FILLER_45_167
*1542 FILLER_45_169
*1543 FILLER_45_181
*1544 FILLER_45_193
*1545 FILLER_45_205
*1546 FILLER_45_217
*1547 FILLER_45_223
*1548 FILLER_45_225
*1549 FILLER_45_237
*1550 FILLER_45_249
*1551 FILLER_45_261
*1552 FILLER_45_27
*1553 FILLER_45_273
*1554 FILLER_45_279
*1555 FILLER_45_281
*1556 FILLER_45_293
*1557 FILLER_45_3
*1558 FILLER_45_39
*1559 FILLER_45_51
*1560 FILLER_45_55
*1561 FILLER_45_57
*1562 FILLER_45_69
*1563 FILLER_45_81
*1564 FILLER_45_93
*1565 FILLER_46_109
*1566 FILLER_46_121
*1567 FILLER_46_133
*1568 FILLER_46_139
*1569 FILLER_46_141
*1570 FILLER_46_15
*1571 FILLER_46_153
*1572 FILLER_46_165
*1573 FILLER_46_177
*1574 FILLER_46_189
*1575 FILLER_46_195
*1576 FILLER_46_197
*1577 FILLER_46_209
*1578 FILLER_46_221
*1579 FILLER_46_233
*1580 FILLER_46_245
*1581 FILLER_46_251
*1582 FILLER_46_253
*1583 FILLER_46_265
*1584 FILLER_46_27
*1585 FILLER_46_277
*1586 FILLER_46_289
*1587 FILLER_46_29
*1588 FILLER_46_297
*1589 FILLER_46_3
*1590 FILLER_46_41
*1591 FILLER_46_53
*1592 FILLER_46_65
*1593 FILLER_46_77
*1594 FILLER_46_83
*1595 FILLER_46_85
*1596 FILLER_46_97
*1597 FILLER_47_105
*1598 FILLER_47_111
*1599 FILLER_47_113
*1600 FILLER_47_125
*1601 FILLER_47_137
*1602 FILLER_47_149
*1603 FILLER_47_15
*1604 FILLER_47_161
*1605 FILLER_47_167
*1606 FILLER_47_169
*1607 FILLER_47_181
*1608 FILLER_47_193
*1609 FILLER_47_205
*1610 FILLER_47_217
*1611 FILLER_47_223
*1612 FILLER_47_225
*1613 FILLER_47_237
*1614 FILLER_47_249
*1615 FILLER_47_261
*1616 FILLER_47_27
*1617 FILLER_47_273
*1618 FILLER_47_279
*1619 FILLER_47_281
*1620 FILLER_47_293
*1621 FILLER_47_3
*1622 FILLER_47_39
*1623 FILLER_47_51
*1624 FILLER_47_55
*1625 FILLER_47_57
*1626 FILLER_47_69
*1627 FILLER_47_81
*1628 FILLER_47_93
*1629 FILLER_48_109
*1630 FILLER_48_121
*1631 FILLER_48_133
*1632 FILLER_48_139
*1633 FILLER_48_141
*1634 FILLER_48_15
*1635 FILLER_48_153
*1636 FILLER_48_165
*1637 FILLER_48_177
*1638 FILLER_48_189
*1639 FILLER_48_195