*SPEF "ieee 1481-1999"
*DESIGN "knight_rider_KolosKoblasz"
*DATE "11:11:11 Fri 11 11, 1111"
*VENDOR "OpenRCX"
*PROGRAM "Parallel Extraction"
*VERSION "1.0"
*DESIGN_FLOW "NAME_SCOPE LOCAL" "PIN_CAP NONE"
*DIVIDER /
*DELIMITER :
*BUS_DELIMITER []
*T_UNIT 1 NS
*C_UNIT 1 PF
*R_UNIT 1 OHM
*L_UNIT 1 HENRY

*NAME_MAP
*1 io_in[0]
*2 io_in[1]
*3 io_in[2]
*4 io_in[3]
*5 io_in[4]
*6 io_in[5]
*7 io_in[6]
*8 io_in[7]
*9 io_out[0]
*10 io_out[1]
*11 io_out[2]
*12 io_out[3]
*13 io_out[4]
*14 io_out[5]
*15 io_out[6]
*16 io_out[7]
*19 _000_
*20 _001_
*21 _002_
*22 _003_
*23 _004_
*24 _005_
*25 _006_
*26 _007_
*27 _008_
*28 _009_
*29 _010_
*30 _011_
*31 _012_
*32 _013_
*33 _014_
*34 _015_
*35 _016_
*36 _017_
*37 _018_
*38 _019_
*39 _020_
*40 _021_
*41 _022_
*42 _023_
*43 _024_
*44 _025_
*45 _026_
*46 _027_
*47 _028_
*48 _029_
*49 _030_
*50 _031_
*51 _032_
*52 _033_
*53 _034_
*54 _035_
*55 _036_
*56 _037_
*57 _038_
*58 _039_
*59 _040_
*60 _041_
*61 _042_
*62 _043_
*63 _044_
*64 _045_
*65 _046_
*66 _047_
*67 _048_
*68 _049_
*69 _050_
*70 _051_
*71 _052_
*72 _053_
*73 _054_
*74 _055_
*75 _056_
*76 _057_
*77 _058_
*78 _059_
*79 _060_
*80 _061_
*81 _062_
*82 _063_
*83 _064_
*84 _065_
*85 _066_
*86 _067_
*87 _068_
*88 _069_
*89 _070_
*90 _071_
*91 _072_
*92 _073_
*93 _074_
*94 _075_
*95 _076_
*96 _077_
*97 _078_
*98 _079_
*99 _080_
*100 _081_
*101 _082_
*102 _083_
*103 _084_
*104 _085_
*105 _086_
*106 _087_
*107 _088_
*108 _089_
*109 _090_
*110 _091_
*111 _092_
*112 _093_
*113 _094_
*114 _095_
*115 _096_
*116 _097_
*117 _098_
*118 _099_
*119 _100_
*120 _101_
*121 _102_
*122 _103_
*123 _104_
*124 _105_
*125 _106_
*126 _107_
*127 _108_
*128 _109_
*129 _110_
*130 _111_
*131 _112_
*132 _113_
*133 _114_
*134 _115_
*135 _116_
*136 _117_
*137 _118_
*138 _119_
*139 _120_
*140 _121_
*141 _122_
*142 _123_
*143 _124_
*144 _125_
*145 _126_
*146 _127_
*147 _128_
*148 _129_
*149 _130_
*150 _131_
*151 _132_
*152 _133_
*153 _134_
*154 _135_
*155 _136_
*156 _137_
*157 _138_
*158 _139_
*159 _140_
*160 _141_
*161 _142_
*162 _143_
*163 _144_
*164 _145_
*165 _146_
*166 _147_
*167 _148_
*168 _149_
*169 _150_
*170 _151_
*171 _152_
*172 _153_
*173 _154_
*174 _155_
*175 _156_
*176 _157_
*177 _158_
*178 _159_
*179 _160_
*180 _161_
*181 _162_
*182 _163_
*183 _164_
*184 _165_
*185 _166_
*186 _167_
*187 _168_
*188 _169_
*189 _170_
*190 _171_
*191 _172_
*192 _173_
*193 _174_
*194 _175_
*195 _176_
*196 _177_
*197 brightness_ctrl_inst\.brightness_sel\[0\]
*198 brightness_ctrl_inst\.brightness_sel\[1\]
*199 brightness_ctrl_inst\.brightness_shr\[0\]
*200 brightness_ctrl_inst\.brightness_shr\[1\]
*201 brightness_ctrl_inst\.brightness_shr\[2\]
*202 brightness_ctrl_inst\.brightness_shr\[3\]
*203 brightness_ctrl_inst\.pwm_cntr\[0\]
*204 brightness_ctrl_inst\.pwm_cntr\[1\]
*205 brightness_ctrl_inst\.pwm_cntr\[2\]
*206 brightness_ctrl_inst\.pwm_cntr\[3\]
*207 brightness_ctrl_inst\.pwm_cntr\[4\]
*208 brightness_ctrl_inst\.pwm_cntr\[5\]
*209 brightness_ctrl_inst\.pwm_cntr\[6\]
*210 clknet_0_io_in[0]
*211 clknet_2_0__leaf_io_in[0]
*212 clknet_2_1__leaf_io_in[0]
*213 clknet_2_2__leaf_io_in[0]
*214 clknet_2_3__leaf_io_in[0]
*215 light_shift_inst\.dir
*216 light_shift_inst\.led_shr\[0\]
*217 light_shift_inst\.led_shr\[1\]
*218 light_shift_inst\.led_shr\[2\]
*219 light_shift_inst\.led_shr\[3\]
*220 light_shift_inst\.led_shr\[4\]
*221 light_shift_inst\.led_shr\[5\]
*222 light_shift_inst\.led_shr\[6\]
*223 light_shift_inst\.led_shr\[7\]
*224 net1
*225 net2
*226 net3
*227 rate_ctrl_inst\.change_rate_shr\[0\]
*228 rate_ctrl_inst\.change_rate_shr\[1\]
*229 rate_ctrl_inst\.change_rate_shr\[2\]
*230 rate_ctrl_inst\.change_rate_shr\[3\]
*231 rate_ctrl_inst\.rate_counter\[0\]
*232 rate_ctrl_inst\.rate_counter\[10\]
*233 rate_ctrl_inst\.rate_counter\[11\]
*234 rate_ctrl_inst\.rate_counter\[12\]
*235 rate_ctrl_inst\.rate_counter\[13\]
*236 rate_ctrl_inst\.rate_counter\[1\]
*237 rate_ctrl_inst\.rate_counter\[2\]
*238 rate_ctrl_inst\.rate_counter\[3\]
*239 rate_ctrl_inst\.rate_counter\[4\]
*240 rate_ctrl_inst\.rate_counter\[5\]
*241 rate_ctrl_inst\.rate_counter\[6\]
*242 rate_ctrl_inst\.rate_counter\[7\]
*243 rate_ctrl_inst\.rate_counter\[8\]
*244 rate_ctrl_inst\.rate_counter\[9\]
*245 rate_ctrl_inst\.rate_ctrl\[0\]
*246 rate_ctrl_inst\.rate_ctrl\[1\]
*247 rate_ctrl_inst\.rate_ctrl\[2\]
*248 ANTENNA_1
*249 ANTENNA_2
*250 ANTENNA_3
*251 ANTENNA_4
*252 ANTENNA_5
*253 ANTENNA_6
*254 FILLER_0_103
*255 FILLER_0_111
*256 FILLER_0_113
*257 FILLER_0_125
*258 FILLER_0_137
*259 FILLER_0_141
*260 FILLER_0_153
*261 FILLER_0_165
*262 FILLER_0_169
*263 FILLER_0_181
*264 FILLER_0_193
*265 FILLER_0_197
*266 FILLER_0_209
*267 FILLER_0_221
*268 FILLER_0_225
*269 FILLER_0_237
*270 FILLER_0_249
*271 FILLER_0_253
*272 FILLER_0_26
*273 FILLER_0_265
*274 FILLER_0_277
*275 FILLER_0_281
*276 FILLER_0_29
*277 FILLER_0_293
*278 FILLER_0_3
*279 FILLER_0_49
*280 FILLER_0_55
*281 FILLER_0_57
*282 FILLER_0_75
*283 FILLER_0_83
*284 FILLER_0_85
*285 FILLER_0_9
*286 FILLER_10_103
*287 FILLER_10_110
*288 FILLER_10_118
*289 FILLER_10_123
*290 FILLER_10_135
*291 FILLER_10_139
*292 FILLER_10_141
*293 FILLER_10_153
*294 FILLER_10_165
*295 FILLER_10_177
*296 FILLER_10_189
*297 FILLER_10_195
*298 FILLER_10_197
*299 FILLER_10_209
*300 FILLER_10_21
*301 FILLER_10_221
*302 FILLER_10_233
*303 FILLER_10_245
*304 FILLER_10_251
*305 FILLER_10_253
*306 FILLER_10_265
*307 FILLER_10_27
*308 FILLER_10_277
*309 FILLER_10_289
*310 FILLER_10_29
*311 FILLER_10_297
*312 FILLER_10_3
*313 FILLER_10_47
*314 FILLER_10_69
*315 FILLER_10_77
*316 FILLER_10_82
*317 FILLER_10_85
*318 FILLER_10_91
*319 FILLER_11_111
*320 FILLER_11_113
*321 FILLER_11_117
*322 FILLER_11_123
*323 FILLER_11_135
*324 FILLER_11_147
*325 FILLER_11_159
*326 FILLER_11_167
*327 FILLER_11_169
*328 FILLER_11_181
*329 FILLER_11_193
*330 FILLER_11_205
*331 FILLER_11_217
*332 FILLER_11_223
*333 FILLER_11_225
*334 FILLER_11_237
*335 FILLER_11_249
*336 FILLER_11_261
*337 FILLER_11_273
*338 FILLER_11_279
*339 FILLER_11_281
*340 FILLER_11_293
*341 FILLER_11_3
*342 FILLER_11_36
*343 FILLER_11_48
*344 FILLER_11_57
*345 FILLER_11_75
*346 FILLER_11_8
*347 FILLER_11_87
*348 FILLER_11_99
*349 FILLER_12_105
*350 FILLER_12_117
*351 FILLER_12_129
*352 FILLER_12_137
*353 FILLER_12_141
*354 FILLER_12_153
*355 FILLER_12_165
*356 FILLER_12_177
*357 FILLER_12_188
*358 FILLER_12_197
*359 FILLER_12_209
*360 FILLER_12_221
*361 FILLER_12_233
*362 FILLER_12_245
*363 FILLER_12_251
*364 FILLER_12_253
*365 FILLER_12_26
*366 FILLER_12_265
*367 FILLER_12_277
*368 FILLER_12_289
*369 FILLER_12_29
*370 FILLER_12_297
*371 FILLER_12_3
*372 FILLER_12_37
*373 FILLER_12_54
*374 FILLER_12_75
*375 FILLER_12_83
*376 FILLER_12_85
*377 FILLER_12_9
*378 FILLER_12_91
*379 FILLER_12_99
*380 FILLER_13_107
*381 FILLER_13_111
*382 FILLER_13_113
*383 FILLER_13_125
*384 FILLER_13_137
*385 FILLER_13_144
*386 FILLER_13_15
*387 FILLER_13_156
*388 FILLER_13_169
*389 FILLER_13_181
*390 FILLER_13_193
*391 FILLER_13_205
*392 FILLER_13_217
*393 FILLER_13_223
*394 FILLER_13_225
*395 FILLER_13_237
*396 FILLER_13_249
*397 FILLER_13_261
*398 FILLER_13_273
*399 FILLER_13_279
*400 FILLER_13_281
*401 FILLER_13_293
*402 FILLER_13_3
*403 FILLER_13_34
*404 FILLER_13_54
*405 FILLER_13_57
*406 FILLER_13_76
*407 FILLER_13_90
*408 FILLER_14_100
*409 FILLER_14_108
*410 FILLER_14_125
*411 FILLER_14_137
*412 FILLER_14_141
*413 FILLER_14_153
*414 FILLER_14_165
*415 FILLER_14_177
*416 FILLER_14_189
*417 FILLER_14_195
*418 FILLER_14_197
*419 FILLER_14_209
*420 FILLER_14_221
*421 FILLER_14_233
*422 FILLER_14_245
*423 FILLER_14_251
*424 FILLER_14_253
*425 FILLER_14_26
*426 FILLER_14_265
*427 FILLER_14_277
*428 FILLER_14_289
*429 FILLER_14_29
*430 FILLER_14_297
*431 FILLER_14_3
*432 FILLER_14_41
*433 FILLER_14_53
*434 FILLER_14_57
*435 FILLER_14_74
*436 FILLER_14_82
*437 FILLER_14_85
*438 FILLER_14_9
*439 FILLER_14_92
*440 FILLER_15_102
*441 FILLER_15_110
*442 FILLER_15_113
*443 FILLER_15_125
*444 FILLER_15_137
*445 FILLER_15_149
*446 FILLER_15_161
*447 FILLER_15_167
*448 FILLER_15_169
*449 FILLER_15_181
*450 FILLER_15_193
*451 FILLER_15_205
*452 FILLER_15_21
*453 FILLER_15_217
*454 FILLER_15_223
*455 FILLER_15_225
*456 FILLER_15_237
*457 FILLER_15_249
*458 FILLER_15_261
*459 FILLER_15_273
*460 FILLER_15_279
*461 FILLER_15_281
*462 FILLER_15_293
*463 FILLER_15_3
*464 FILLER_15_33
*465 FILLER_15_45
*466 FILLER_15_53
*467 FILLER_15_57
*468 FILLER_15_75
*469 FILLER_15_87
*470 FILLER_15_95
*471 FILLER_16_101
*472 FILLER_16_116
*473 FILLER_16_128
*474 FILLER_16_13
*475 FILLER_16_141
*476 FILLER_16_153
*477 FILLER_16_165
*478 FILLER_16_177
*479 FILLER_16_189
*480 FILLER_16_195
*481 FILLER_16_197
*482 FILLER_16_204
*483 FILLER_16_21
*484 FILLER_16_216
*485 FILLER_16_228
*486 FILLER_16_236
*487 FILLER_16_242
*488 FILLER_16_250
*489 FILLER_16_253
*490 FILLER_16_26
*491 FILLER_16_265
*492 FILLER_16_277
*493 FILLER_16_289
*494 FILLER_16_29
*495 FILLER_16_297
*496 FILLER_16_3
*497 FILLER_16_36
*498 FILLER_16_45
*499 FILLER_16_54
*500 FILLER_16_69
*501 FILLER_16_73
*502 FILLER_16_78
*503 FILLER_16_85
*504 FILLER_16_91
*505 FILLER_17_105
*506 FILLER_17_111
*507 FILLER_17_113
*508 FILLER_17_118
*509 FILLER_17_130
*510 FILLER_17_137
*511 FILLER_17_149
*512 FILLER_17_161
*513 FILLER_17_167
*514 FILLER_17_169
*515 FILLER_17_18
*516 FILLER_17_181
*517 FILLER_17_193
*518 FILLER_17_205
*519 FILLER_17_217
*520 FILLER_17_223
*521 FILLER_17_225
*522 FILLER_17_237
*523 FILLER_17_249
*524 FILLER_17_261
*525 FILLER_17_273
*526 FILLER_17_279
*527 FILLER_17_281
*528 FILLER_17_293
*529 FILLER_17_3
*530 FILLER_17_30
*531 FILLER_17_34
*532 FILLER_17_41
*533 FILLER_17_45
*534 FILLER_17_54
*535 FILLER_17_57
*536 FILLER_17_72
*537 FILLER_17_81
*538 FILLER_17_9
*539 FILLER_17_93
*540 FILLER_18_10
*541 FILLER_18_101
*542 FILLER_18_113
*543 FILLER_18_125
*544 FILLER_18_137
*545 FILLER_18_141
*546 FILLER_18_145
*547 FILLER_18_150
*548 FILLER_18_158
*549 FILLER_18_164
*550 FILLER_18_176
*551 FILLER_18_188
*552 FILLER_18_19
*553 FILLER_18_197
*554 FILLER_18_209
*555 FILLER_18_221
*556 FILLER_18_233
*557 FILLER_18_245
*558 FILLER_18_251
*559 FILLER_18_253
*560 FILLER_18_265
*561 FILLER_18_27
*562 FILLER_18_277
*563 FILLER_18_289
*564 FILLER_18_29
*565 FILLER_18_297
*566 FILLER_18_3
*567 FILLER_18_35
*568 FILLER_18_46
*569 FILLER_18_50
*570 FILLER_18_55
*571 FILLER_18_61
*572 FILLER_18_65
*573 FILLER_18_80
*574 FILLER_18_85
*575 FILLER_18_94
*576 FILLER_19_105
*577 FILLER_19_111
*578 FILLER_19_113
*579 FILLER_19_122
*580 FILLER_19_134
*581 FILLER_19_146
*582 FILLER_19_15
*583 FILLER_19_158
*584 FILLER_19_166
*585 FILLER_19_169
*586 FILLER_19_181
*587 FILLER_19_193
*588 FILLER_19_205
*589 FILLER_19_217
*590 FILLER_19_223
*591 FILLER_19_225
*592 FILLER_19_237
*593 FILLER_19_249
*594 FILLER_19_261
*595 FILLER_19_27
*596 FILLER_19_273
*597 FILLER_19_279
*598 FILLER_19_281
*599 FILLER_19_293
*600 FILLER_19_3
*601 FILLER_19_40
*602 FILLER_19_49
*603 FILLER_19_55
*604 FILLER_19_57
*605 FILLER_19_66
*606 FILLER_19_74
*607 FILLER_19_93
*608 FILLER_1_104
*609 FILLER_1_113
*610 FILLER_1_125
*611 FILLER_1_137
*612 FILLER_1_149
*613 FILLER_1_161
*614 FILLER_1_167
*615 FILLER_1_169
*616 FILLER_1_181
*617 FILLER_1_193
*618 FILLER_1_205
*619 FILLER_1_217
*620 FILLER_1_22
*621 FILLER_1_223
*622 FILLER_1_225
*623 FILLER_1_237
*624 FILLER_1_249
*625 FILLER_1_26
*626 FILLER_1_261
*627 FILLER_1_273
*628 FILLER_1_279
*629 FILLER_1_281
*630 FILLER_1_293
*631 FILLER_1_3
*632 FILLER_1_44
*633 FILLER_1_57
*634 FILLER_1_76
*635 FILLER_1_96
*636 FILLER_20_104
*637 FILLER_20_116
*638 FILLER_20_128
*639 FILLER_20_13
*640 FILLER_20_136
*641 FILLER_20_141
*642 FILLER_20_153
*643 FILLER_20_165
*644 FILLER_20_177
*645 FILLER_20_189
*646 FILLER_20_195
*647 FILLER_20_197
*648 FILLER_20_209
*649 FILLER_20_221
*650 FILLER_20_233
*651 FILLER_20_245
*652 FILLER_20_25
*653 FILLER_20_251
*654 FILLER_20_253
*655 FILLER_20_265
*656 FILLER_20_277
*657 FILLER_20_289
*658 FILLER_20_29
*659 FILLER_20_297
*660 FILLER_20_3
*661 FILLER_20_40
*662 FILLER_20_46
*663 FILLER_20_55
*664 FILLER_20_67
*665 FILLER_20_72
*666 FILLER_20_82
*667 FILLER_20_85
*668 FILLER_21_10
*669 FILLER_21_108
*670 FILLER_21_113
*671 FILLER_21_117
*672 FILLER_21_121
*673 FILLER_21_134
*674 FILLER_21_14
*675 FILLER_21_146
*676 FILLER_21_158
*677 FILLER_21_166
*678 FILLER_21_169
*679 FILLER_21_181
*680 FILLER_21_193
*681 FILLER_21_20
*682 FILLER_21_205
*683 FILLER_21_217
*684 FILLER_21_223
*685 FILLER_21_225
*686 FILLER_21_237
*687 FILLER_21_249
*688 FILLER_21_261
*689 FILLER_21_27
*690 FILLER_21_273
*691 FILLER_21_279
*692 FILLER_21_281
*693 FILLER_21_293
*694 FILLER_21_3
*695 FILLER_21_43
*696 FILLER_21_55
*697 FILLER_21_57
*698 FILLER_21_69
*699 FILLER_21_85
*700 FILLER_21_89
*701 FILLER_21_96
*702 FILLER_22_103
*703 FILLER_22_11
*704 FILLER_22_115
*705 FILLER_22_127
*706 FILLER_22_139
*707 FILLER_22_141
*708 FILLER_22_153
*709 FILLER_22_165
*710 FILLER_22_177
*711 FILLER_22_189
*712 FILLER_22_195
*713 FILLER_22_197
*714 FILLER_22_209
*715 FILLER_22_22
*716 FILLER_22_221
*717 FILLER_22_233
*718 FILLER_22_245
*719 FILLER_22_251
*720 FILLER_22_253
*721 FILLER_22_265
*722 FILLER_22_277
*723 FILLER_22_289
*724 FILLER_22_29
*725 FILLER_22_297
*726 FILLER_22_3
*727 FILLER_22_41
*728 FILLER_22_52
*729 FILLER_22_64
*730 FILLER_22_75
*731 FILLER_22_82
*732 FILLER_22_85
*733 FILLER_22_92
*734 FILLER_23_110
*735 FILLER_23_113
*736 FILLER_23_125
*737 FILLER_23_13
*738 FILLER_23_137
*739 FILLER_23_149
*740 FILLER_23_161
*741 FILLER_23_167
*742 FILLER_23_169
*743 FILLER_23_181
*744 FILLER_23_193
*745 FILLER_23_20
*746 FILLER_23_205
*747 FILLER_23_217
*748 FILLER_23_223
*749 FILLER_23_225
*750 FILLER_23_237
*751 FILLER_23_249
*752 FILLER_23_261
*753 FILLER_23_273
*754 FILLER_23_279
*755 FILLER_23_281
*756 FILLER_23_293
*757 FILLER_23_3
*758 FILLER_23_31
*759 FILLER_23_40
*760 FILLER_23_48
*761 FILLER_23_57
*762 FILLER_23_64
*763 FILLER_23_73
*764 FILLER_23_81
*765 FILLER_23_89
*766 FILLER_24_10
*767 FILLER_24_103
*768 FILLER_24_115
*769 FILLER_24_127
*770 FILLER_24_139
*771 FILLER_24_141
*772 FILLER_24_153
*773 FILLER_24_165
*774 FILLER_24_177
*775 FILLER_24_189
*776 FILLER_24_195
*777 FILLER_24_197
*778 FILLER_24_209
*779 FILLER_24_22
*780 FILLER_24_221
*781 FILLER_24_233
*782 FILLER_24_245
*783 FILLER_24_251
*784 FILLER_24_253
*785 FILLER_24_265
*786 FILLER_24_277
*787 FILLER_24_289
*788 FILLER_24_29
*789 FILLER_24_297
*790 FILLER_24_3
*791 FILLER_24_37
*792 FILLER_24_45
*793 FILLER_24_57
*794 FILLER_24_63
*795 FILLER_24_73
*796 FILLER_24_81
*797 FILLER_24_85
*798 FILLER_24_97
*799 FILLER_25_101
*800 FILLER_25_109
*801 FILLER_25_113
*802 FILLER_25_125
*803 FILLER_25_129
*804 FILLER_25_134
*805 FILLER_25_146
*806 FILLER_25_158
*807 FILLER_25_16
*808 FILLER_25_166
*809 FILLER_25_169
*810 FILLER_25_181
*811 FILLER_25_193
*812 FILLER_25_205
*813 FILLER_25_217
*814 FILLER_25_223
*815 FILLER_25_225
*816 FILLER_25_237
*817 FILLER_25_249
*818 FILLER_25_261
*819 FILLER_25_273
*820 FILLER_25_279
*821 FILLER_25_281
*822 FILLER_25_293
*823 FILLER_25_3
*824 FILLER_25_31
*825 FILLER_25_39
*826 FILLER_25_44
*827 FILLER_25_57
*828 FILLER_25_69
*829 FILLER_25_81
*830 FILLER_25_89
*831 FILLER_26_106
*832 FILLER_26_118
*833 FILLER_26_130
*834 FILLER_26_138
*835 FILLER_26_141
*836 FILLER_26_153
*837 FILLER_26_165
*838 FILLER_26_177
*839 FILLER_26_189
*840 FILLER_26_195
*841 FILLER_26_197
*842 FILLER_26_20
*843 FILLER_26_209
*844 FILLER_26_221
*845 FILLER_26_233
*846 FILLER_26_245
*847 FILLER_26_251
*848 FILLER_26_253
*849 FILLER_26_265
*850 FILLER_26_277
*851 FILLER_26_289
*852 FILLER_26_29
*853 FILLER_26_297
*854 FILLER_26_3
*855 FILLER_26_38
*856 FILLER_26_46
*857 FILLER_26_53
*858 FILLER_26_61
*859 FILLER_26_69
*860 FILLER_26_8
*861 FILLER_26_80
*862 FILLER_26_85
*863 FILLER_26_89
*864 FILLER_26_98
*865 FILLER_27_106
*866 FILLER_27_113
*867 FILLER_27_119
*868 FILLER_27_12
*869 FILLER_27_131
*870 FILLER_27_143
*871 FILLER_27_155
*872 FILLER_27_167
*873 FILLER_27_169
*874 FILLER_27_181
*875 FILLER_27_193
*876 FILLER_27_205
*877 FILLER_27_217
*878 FILLER_27_223
*879 FILLER_27_225
*880 FILLER_27_237
*881 FILLER_27_24
*882 FILLER_27_249
*883 FILLER_27_261
*884 FILLER_27_273
*885 FILLER_27_279
*886 FILLER_27_281
*887 FILLER_27_293
*888 FILLER_27_3
*889 FILLER_27_34
*890 FILLER_27_47
*891 FILLER_27_54
*892 FILLER_27_57
*893 FILLER_27_64
*894 FILLER_27_72
*895 FILLER_27_84
*896 FILLER_27_96
*897 FILLER_28_105
*898 FILLER_28_11
*899 FILLER_28_115
*900 FILLER_28_127
*901 FILLER_28_139
*902 FILLER_28_141
*903 FILLER_28_153
*904 FILLER_28_16
*905 FILLER_28_165
*906 FILLER_28_177
*907 FILLER_28_189
*908 FILLER_28_195
*909 FILLER_28_197
*910 FILLER_28_209
*911 FILLER_28_221
*912 FILLER_28_233
*913 FILLER_28_245
*914 FILLER_28_25
*915 FILLER_28_251
*916 FILLER_28_253
*917 FILLER_28_265
*918 FILLER_28_277
*919 FILLER_28_289
*920 FILLER_28_29
*921 FILLER_28_297
*922 FILLER_28_3
*923 FILLER_28_41
*924 FILLER_28_50
*925 FILLER_28_62
*926 FILLER_28_68
*927 FILLER_28_80
*928 FILLER_28_85
*929 FILLER_29_103
*930 FILLER_29_111
*931 FILLER_29_113
*932 FILLER_29_121
*933 FILLER_29_133
*934 FILLER_29_145
*935 FILLER_29_15
*936 FILLER_29_157
*937 FILLER_29_165
*938 FILLER_29_169
*939 FILLER_29_181
*940 FILLER_29_193
*941 FILLER_29_205
*942 FILLER_29_217
*943 FILLER_29_223
*944 FILLER_29_225
*945 FILLER_29_23
*946 FILLER_29_237
*947 FILLER_29_249
*948 FILLER_29_261
*949 FILLER_29_273
*950 FILLER_29_279
*951 FILLER_29_281
*952 FILLER_29_293
*953 FILLER_29_3
*954 FILLER_29_30
*955 FILLER_29_42
*956 FILLER_29_54
*957 FILLER_29_57
*958 FILLER_29_63
*959 FILLER_29_71
*960 FILLER_29_79
*961 FILLER_29_91
*962 FILLER_2_103
*963 FILLER_2_114
*964 FILLER_2_126
*965 FILLER_2_138
*966 FILLER_2_141
*967 FILLER_2_153
*968 FILLER_2_165
*969 FILLER_2_177
*970 FILLER_2_189
*971 FILLER_2_195
*972 FILLER_2_197
*973 FILLER_2_209
*974 FILLER_2_22
*975 FILLER_2_221
*976 FILLER_2_233
*977 FILLER_2_245
*978 FILLER_2_251
*979 FILLER_2_253
*980 FILLER_2_26
*981 FILLER_2_265
*982 FILLER_2_277
*983 FILLER_2_289
*984 FILLER_2_29
*985 FILLER_2_297
*986 FILLER_2_3
*987 FILLER_2_37
*988 FILLER_2_65
*989 FILLER_2_77
*990 FILLER_2_83
*991 FILLER_2_85
*992 FILLER_30_107
*993 FILLER_30_119
*994 FILLER_30_131
*995 FILLER_30_139
*996 FILLER_30_14
*997 FILLER_30_141
*998 FILLER_30_156
*999 FILLER_30_168
*1000 FILLER_30_180
*1001 FILLER_30_192
*1002 FILLER_30_197
*1003 FILLER_30_209
*1004 FILLER_30_221
*1005 FILLER_30_233
*1006 FILLER_30_245
*1007 FILLER_30_251
*1008 FILLER_30_253
*1009 FILLER_30_26
*1010 FILLER_30_265
*1011 FILLER_30_277
*1012 FILLER_30_289
*1013 FILLER_30_29
*1014 FILLER_30_297
*1015 FILLER_30_3
*1016 FILLER_30_35
*1017 FILLER_30_40
*1018 FILLER_30_52
*1019 FILLER_30_66
*1020 FILLER_30_75
*1021 FILLER_30_83
*1022 FILLER_30_85
*1023 FILLER_30_95
*1024 FILLER_31_101
*1025 FILLER_31_107
*1026 FILLER_31_111
*1027 FILLER_31_113
*1028 FILLER_31_127
*1029 FILLER_31_139
*1030 FILLER_31_15
*1031 FILLER_31_151
*1032 FILLER_31_163
*1033 FILLER_31_167
*1034 FILLER_31_169
*1035 FILLER_31_181
*1036 FILLER_31_193
*1037 FILLER_31_205
*1038 FILLER_31_217
*1039 FILLER_31_223
*1040 FILLER_31_225
*1041 FILLER_31_237
*1042 FILLER_31_249
*1043 FILLER_31_261
*1044 FILLER_31_27
*1045 FILLER_31_273
*1046 FILLER_31_279
*1047 FILLER_31_281
*1048 FILLER_31_293
*1049 FILLER_31_3
*1050 FILLER_31_39
*1051 FILLER_31_45
*1052 FILLER_31_54
*1053 FILLER_31_57
*1054 FILLER_31_69
*1055 FILLER_31_81
*1056 FILLER_31_93
*1057 FILLER_32_100
*1058 FILLER_32_108
*1059 FILLER_32_112
*1060 FILLER_32_126
*1061 FILLER_32_138
*1062 FILLER_32_141
*1063 FILLER_32_153
*1064 FILLER_32_165
*1065 FILLER_32_177
*1066 FILLER_32_189
*1067 FILLER_32_195
*1068 FILLER_32_197
*1069 FILLER_32_209
*1070 FILLER_32_22
*1071 FILLER_32_221
*1072 FILLER_32_233
*1073 FILLER_32_245
*1074 FILLER_32_251
*1075 FILLER_32_253
*1076 FILLER_32_265
*1077 FILLER_32_277
*1078 FILLER_32_289
*1079 FILLER_32_29
*1080 FILLER_32_297
*1081 FILLER_32_3
*1082 FILLER_32_33
*1083 FILLER_32_41
*1084 FILLER_32_53
*1085 FILLER_32_65
*1086 FILLER_32_77
*1087 FILLER_32_83
*1088 FILLER_32_85
*1089 FILLER_32_91
*1090 FILLER_33_105
*1091 FILLER_33_111
*1092 FILLER_33_113
*1093 FILLER_33_125
*1094 FILLER_33_137
*1095 FILLER_33_149
*1096 FILLER_33_15
*1097 FILLER_33_161
*1098 FILLER_33_167
*1099 FILLER_33_169
*1100 FILLER_33_181
*1101 FILLER_33_193
*1102 FILLER_33_205
*1103 FILLER_33_217
*1104 FILLER_33_22
*1105 FILLER_33_223
*1106 FILLER_33_225
*1107 FILLER_33_237
*1108 FILLER_33_249
*1109 FILLER_33_261
*1110 FILLER_33_273
*1111 FILLER_33_279
*1112 FILLER_33_281
*1113 FILLER_33_293
*1114 FILLER_33_3
*1115 FILLER_33_30
*1116 FILLER_33_40
*1117 FILLER_33_52
*1118 FILLER_33_57
*1119 FILLER_33_69
*1120 FILLER_33_81
*1121 FILLER_33_93
*1122 FILLER_34_109
*1123 FILLER_34_11
*1124 FILLER_34_121
*1125 FILLER_34_132
*1126 FILLER_34_141
*1127 FILLER_34_153
*1128 FILLER_34_165
*1129 FILLER_34_177
*1130 FILLER_34_189
*1131 FILLER_34_195
*1132 FILLER_34_197
*1133 FILLER_34_209
*1134 FILLER_34_21
*1135 FILLER_34_221
*1136 FILLER_34_233
*1137 FILLER_34_245
*1138 FILLER_34_251
*1139 FILLER_34_253
*1140 FILLER_34_265
*1141 FILLER_34_27
*1142 FILLER_34_277
*1143 FILLER_34_289
*1144 FILLER_34_29
*1145 FILLER_34_297
*1146 FILLER_34_3
*1147 FILLER_34_41
*1148 FILLER_34_49
*1149 FILLER_34_61
*1150 FILLER_34_73
*1151 FILLER_34_81
*1152 FILLER_34_85
*1153 FILLER_34_97
*1154 FILLER_35_10
*1155 FILLER_35_105
*1156 FILLER_35_111
*1157 FILLER_35_113
*1158 FILLER_35_123
*1159 FILLER_35_135
*1160 FILLER_35_147
*1161 FILLER_35_159
*1162 FILLER_35_167
*1163 FILLER_35_169
*1164 FILLER_35_18
*1165 FILLER_35_181
*1166 FILLER_35_193
*1167 FILLER_35_205
*1168 FILLER_35_217
*1169 FILLER_35_223
*1170 FILLER_35_225
*1171 FILLER_35_237
*1172 FILLER_35_249
*1173 FILLER_35_261
*1174 FILLER_35_273
*1175 FILLER_35_279
*1176 FILLER_35_281
*1177 FILLER_35_293
*1178 FILLER_35_3
*1179 FILLER_35_33
*1180 FILLER_35_45
*1181 FILLER_35_53
*1182 FILLER_35_57
*1183 FILLER_35_69
*1184 FILLER_35_81
*1185 FILLER_35_93
*1186 FILLER_36_104
*1187 FILLER_36_116
*1188 FILLER_36_128
*1189 FILLER_36_141
*1190 FILLER_36_15
*1191 FILLER_36_153
*1192 FILLER_36_165
*1193 FILLER_36_177
*1194 FILLER_36_189
*1195 FILLER_36_195
*1196 FILLER_36_197
*1197 FILLER_36_209
*1198 FILLER_36_21
*1199 FILLER_36_221
*1200 FILLER_36_233
*1201 FILLER_36_245
*1202 FILLER_36_251
*1203 FILLER_36_253
*1204 FILLER_36_265
*1205 FILLER_36_27
*1206 FILLER_36_277
*1207 FILLER_36_289
*1208 FILLER_36_29
*1209 FILLER_36_297
*1210 FILLER_36_3
*1211 FILLER_36_40
*1212 FILLER_36_52
*1213 FILLER_36_64
*1214 FILLER_36_76
*1215 FILLER_36_85
*1216 FILLER_36_9
*1217 FILLER_36_97
*1218 FILLER_37_100
*1219 FILLER_37_11
*1220 FILLER_37_113
*1221 FILLER_37_125
*1222 FILLER_37_137
*1223 FILLER_37_149
*1224 FILLER_37_161
*1225 FILLER_37_167
*1226 FILLER_37_169
*1227 FILLER_37_181
*1228 FILLER_37_193
*1229 FILLER_37_205
*1230 FILLER_37_217
*1231 FILLER_37_223
*1232 FILLER_37_225
*1233 FILLER_37_237
*1234 FILLER_37_249
*1235 FILLER_37_26
*1236 FILLER_37_261
*1237 FILLER_37_273
*1238 FILLER_37_279
*1239 FILLER_37_281
*1240 FILLER_37_293
*1241 FILLER_37_3
*1242 FILLER_37_34
*1243 FILLER_37_40
*1244 FILLER_37_49
*1245 FILLER_37_55
*1246 FILLER_37_57
*1247 FILLER_37_69
*1248 FILLER_37_81
*1249 FILLER_37_89
*1250 FILLER_38_109
*1251 FILLER_38_121
*1252 FILLER_38_133
*1253 FILLER_38_139
*1254 FILLER_38_141
*1255 FILLER_38_153
*1256 FILLER_38_165
*1257 FILLER_38_177
*1258 FILLER_38_189
*1259 FILLER_38_195
*1260 FILLER_38_197
*1261 FILLER_38_20
*1262 FILLER_38_209
*1263 FILLER_38_221
*1264 FILLER_38_233
*1265 FILLER_38_245
*1266 FILLER_38_251
*1267 FILLER_38_253
*1268 FILLER_38_265
*1269 FILLER_38_277
*1270 FILLER_38_289
*1271 FILLER_38_29
*1272 FILLER_38_297
*1273 FILLER_38_3
*1274 FILLER_38_41
*1275 FILLER_38_55
*1276 FILLER_38_67
*1277 FILLER_38_8
*1278 FILLER_38_80
*1279 FILLER_38_85
*1280 FILLER_38_97
*1281 FILLER_39_105
*1282 FILLER_39_111
*1283 FILLER_39_113
*1284 FILLER_39_125
*1285 FILLER_39_137
*1286 FILLER_39_149
*1287 FILLER_39_15
*1288 FILLER_39_161
*1289 FILLER_39_167
*1290 FILLER_39_169
*1291 FILLER_39_181
*1292 FILLER_39_193
*1293 FILLER_39_205
*1294 FILLER_39_217
*1295 FILLER_39_223
*1296 FILLER_39_225
*1297 FILLER_39_237
*1298 FILLER_39_249
*1299 FILLER_39_261
*1300 FILLER_39_273
*1301 FILLER_39_279
*1302 FILLER_39_281
*1303 FILLER_39_29
*1304 FILLER_39_293
*1305 FILLER_39_3
*1306 FILLER_39_41
*1307 FILLER_39_53
*1308 FILLER_39_57
*1309 FILLER_39_69
*1310 FILLER_39_81
*1311 FILLER_39_93
*1312 FILLER_3_102
*1313 FILLER_3_110
*1314 FILLER_3_113
*1315 FILLER_3_121
*1316 FILLER_3_128
*1317 FILLER_3_139
*1318 FILLER_3_148
*1319 FILLER_3_160
*1320 FILLER_3_169
*1321 FILLER_3_181
*1322 FILLER_3_193
*1323 FILLER_3_205
*1324 FILLER_3_217
*1325 FILLER_3_221
*1326 FILLER_3_225
*1327 FILLER_3_237
*1328 FILLER_3_249
*1329 FILLER_3_25
*1330 FILLER_3_261
*1331 FILLER_3_273
*1332 FILLER_3_279
*1333 FILLER_3_281
*1334 FILLER_3_293
*1335 FILLER_3_3
*1336 FILLER_3_33
*1337 FILLER_3_52
*1338 FILLER_3_57
*1339 FILLER_3_76
*1340 FILLER_3_96
*1341 FILLER_40_109
*1342 FILLER_40_121
*1343 FILLER_40_133
*1344 FILLER_40_139
*1345 FILLER_40_141
*1346 FILLER_40_15
*1347 FILLER_40_153
*1348 FILLER_40_165
*1349 FILLER_40_177
*1350 FILLER_40_189
*1351 FILLER_40_195
*1352 FILLER_40_197
*1353 FILLER_40_209
*1354 FILLER_40_221
*1355 FILLER_40_233
*1356 FILLER_40_245
*1357 FILLER_40_251
*1358 FILLER_40_253
*1359 FILLER_40_265
*1360 FILLER_40_27
*1361 FILLER_40_277
*1362 FILLER_40_289
*1363 FILLER_40_29
*1364 FILLER_40_297
*1365 FILLER_40_3
*1366 FILLER_40_41
*1367 FILLER_40_53
*1368 FILLER_40_65
*1369 FILLER_40_77
*1370 FILLER_40_83
*1371 FILLER_40_85
*1372 FILLER_40_97
*1373 FILLER_41_105
*1374 FILLER_41_111
*1375 FILLER_41_113
*1376 FILLER_41_125
*1377 FILLER_41_13
*1378 FILLER_41_137
*1379 FILLER_41_149
*1380 FILLER_41_161
*1381 FILLER_41_167
*1382 FILLER_41_169
*1383 FILLER_41_181
*1384 FILLER_41_193
*1385 FILLER_41_205
*1386 FILLER_41_21
*1387 FILLER_41_217
*1388 FILLER_41_223
*1389 FILLER_41_225
*1390 FILLER_41_237
*1391 FILLER_41_249
*1392 FILLER_41_261
*1393 FILLER_41_273
*1394 FILLER_41_279
*1395 FILLER_41_281
*1396 FILLER_41_293
*1397 FILLER_41_3
*1398 FILLER_41_33
*1399 FILLER_41_45
*1400 FILLER_41_53
*1401 FILLER_41_57
*1402 FILLER_41_69
*1403 FILLER_41_7
*1404 FILLER_41_81
*1405 FILLER_41_93
*1406 FILLER_42_109
*1407 FILLER_42_121
*1408 FILLER_42_133
*1409 FILLER_42_139
*1410 FILLER_42_141
*1411 FILLER_42_15
*1412 FILLER_42_153
*1413 FILLER_42_165
*1414 FILLER_42_177
*1415 FILLER_42_189
*1416 FILLER_42_195
*1417 FILLER_42_197
*1418 FILLER_42_20
*1419 FILLER_42_209
*1420 FILLER_42_221
*1421 FILLER_42_233
*1422 FILLER_42_245
*1423 FILLER_42_251
*1424 FILLER_42_253
*1425 FILLER_42_265
*1426 FILLER_42_277
*1427 FILLER_42_289
*1428 FILLER_42_29
*1429 FILLER_42_297
*1430 FILLER_42_3
*1431 FILLER_42_35
*1432 FILLER_42_47
*1433 FILLER_42_59
*1434 FILLER_42_71
*1435 FILLER_42_83
*1436 FILLER_42_85
*1437 FILLER_42_97
*1438 FILLER_43_105
*1439 FILLER_43_111
*1440 FILLER_43_113
*1441 FILLER_43_125
*1442 FILLER_43_137
*1443 FILLER_43_149
*1444 FILLER_43_161
*1445 FILLER_43_167
*1446 FILLER_43_169
*1447 FILLER_43_181
*1448 FILLER_43_193
*1449 FILLER_43_205
*1450 FILLER_43_21
*1451 FILLER_43_217
*1452 FILLER_43_223
*1453 FILLER_43_225
*1454 FILLER_43_237
*1455 FILLER_43_249
*1456 FILLER_43_261
*1457 FILLER_43_273
*1458 FILLER_43_279
*1459 FILLER_43_281
*1460 FILLER_43_293
*1461 FILLER_43_3
*1462 FILLER_43_33
*1463 FILLER_43_45
*1464 FILLER_43_53
*1465 FILLER_43_57
*1466 FILLER_43_69
*1467 FILLER_43_81
*1468 FILLER_43_9
*1469 FILLER_43_93
*1470 FILLER_44_109
*1471 FILLER_44_121
*1472 FILLER_44_133
*1473 FILLER_44_139
*1474 FILLER_44_141
*1475 FILLER_44_15
*1476 FILLER_44_153
*1477 FILLER_44_165
*1478 FILLER_44_177
*1479 FILLER_44_189
*1480 FILLER_44_195
*1481 FILLER_44_197
*1482 FILLER_44_209
*1483 FILLER_44_221
*1484 FILLER_44_233
*1485 FILLER_44_245
*1486 FILLER_44_251
*1487 FILLER_44_253
*1488 FILLER_44_265
*1489 FILLER_44_27
*1490 FILLER_44_277
*1491 FILLER_44_289
*1492 FILLER_44_29
*1493 FILLER_44_297
*1494 FILLER_44_3
*1495 FILLER_44_41
*1496 FILLER_44_53
*1497 FILLER_44_65
*1498 FILLER_44_77
*1499 FILLER_44_83
*1500 FILLER_44_85
*1501 FILLER_44_97
*1502 FILLER_45_105
*1503 FILLER_45_111
*1504 FILLER_45_113
*1505 FILLER_45_125
*1506 FILLER_45_137
*1507 FILLER_45_149
*1508 FILLER_45_15
*1509 FILLER_45_161
*1510 FILLER_45_167
*1511 FILLER_45_169
*1512 FILLER_45_181
*1513 FILLER_45_193
*1514 FILLER_45_205
*1515 FILLER_45_217
*1516 FILLER_45_223
*1517 FILLER_45_225
*1518 FILLER_45_237
*1519 FILLER_45_249
*1520 FILLER_45_261
*1521 FILLER_45_27
*1522 FILLER_45_273
*1523 FILLER_45_279
*1524 FILLER_45_281
*1525 FILLER_45_293
*1526 FILLER_45_3
*1527 FILLER_45_39
*1528 FILLER_45_47
*1529 FILLER_45_52
*1530 FILLER_45_57
*1531 FILLER_45_69
*1532 FILLER_45_81
*1533 FILLER_45_93
*1534 FILLER_46_10
*1535 FILLER_46_109
*1536 FILLER_46_121
*1537 FILLER_46_133
*1538 FILLER_46_139
*1539 FILLER_46_14
*1540 FILLER_46_141
*1541 FILLER_46_153
*1542 FILLER_46_165
*1543 FILLER_46_177
*1544 FILLER_46_189
*1545 FILLER_46_195
*1546 FILLER_46_197
*1547 FILLER_46_20
*1548 FILLER_46_209
*1549 FILLER_46_221
*1550 FILLER_46_233
*1551 FILLER_46_245
*1552 FILLER_46_251
*1553 FILLER_46_253
*1554 FILLER_46_265
*1555 FILLER_46_277
*1556 FILLER_46_289
*1557 FILLER_46_29
*1558 FILLER_46_297
*1559 FILLER_46_3
*1560 FILLER_46_54
*1561 FILLER_46_66
*1562 FILLER_46_78
*1563 FILLER_46_85
*1564 FILLER_46_97
*1565 FILLER_47_105
*1566 FILLER_47_111
*1567 FILLER_47_113
*1568 FILLER_47_125
*1569 FILLER_47_137
*1570 FILLER_47_149
*1571 FILLER_47_15
*1572 FILLER_47_161
*1573 FILLER_47_167
*1574 FILLER_47_169
*1575 FILLER_47_181
*1576 FILLER_47_193
*1577 FILLER_47_205
*1578 FILLER_47_217
*1579 FILLER_47_223
*1580 FILLER_47_225
*1581 FILLER_47_237
*1582 FILLER_47_249
*1583 FILLER_47_261
*1584 FILLER_47_27
*1585 FILLER_47_273
*1586 FILLER_47_279
*1587 FILLER_47_281
*1588 FILLER_47_293
*1589 FILLER_47_3
*1590 FILLER_47_39
*1591 FILLER_47_51
*1592 FILLER_47_55
*1593 FILLER_47_57
*1594 FILLER_47_69
*1595 FILLER_47_81
*1596 FILLER_47_93
*1597 FILLER_48_109
*1598 FILLER_48_121
*1599 FILLER_48_133
*1600 FILLER_48_139
*1601 FILLER_48_141
*1602 FILLER_48_15