*SPEF "ieee 1481-1999"
*DESIGN "krasin_tt02_verilog_spi_7_channel_pwm_driver"
*DATE "11:11:11 Fri 11 11, 1111"
*VENDOR "OpenRCX"
*PROGRAM "Parallel Extraction"
*VERSION "1.0"
*DESIGN_FLOW "NAME_SCOPE LOCAL" "PIN_CAP NONE"
*DIVIDER /
*DELIMITER :
*BUS_DELIMITER []
*T_UNIT 1 NS
*C_UNIT 1 PF
*R_UNIT 1 OHM
*L_UNIT 1 HENRY

*NAME_MAP
*1 io_in[0]
*2 io_in[1]
*3 io_in[2]
*4 io_in[3]
*5 io_in[4]
*6 io_in[5]
*7 io_in[6]
*8 io_in[7]
*9 io_out[0]
*10 io_out[1]
*11 io_out[2]
*12 io_out[3]
*13 io_out[4]
*14 io_out[5]
*15 io_out[6]
*16 io_out[7]
*19 _000_
*20 _001_
*21 _002_
*22 _003_
*23 _004_
*24 _005_
*25 _006_
*26 _007_
*27 _008_
*28 _009_
*29 _010_
*30 _011_
*31 _012_
*32 _013_
*33 _014_
*34 _015_
*35 _016_
*36 _017_
*37 _018_
*38 _019_
*39 _020_
*40 _021_
*41 _022_
*42 _023_
*43 _024_
*44 _025_
*45 _026_
*46 _027_
*47 _028_
*48 _029_
*49 _030_
*50 _031_
*51 _032_
*52 _033_
*53 _034_
*54 _035_
*55 _036_
*56 _037_
*57 _038_
*58 _039_
*59 _040_
*60 _041_
*61 _042_
*62 _043_
*63 _044_
*64 _045_
*65 _046_
*66 _047_
*67 _048_
*68 _049_
*69 _050_
*70 _051_
*71 _052_
*72 _053_
*73 _054_
*74 _055_
*75 _056_
*76 _057_
*77 _058_
*78 _059_
*79 _060_
*80 _061_
*81 _062_
*82 _063_
*83 _064_
*84 _065_
*85 _066_
*86 _067_
*87 _068_
*88 _069_
*89 _070_
*90 _071_
*91 _072_
*92 _073_
*93 _074_
*94 _075_
*95 _076_
*96 _077_
*97 _078_
*98 _079_
*99 _080_
*100 _081_
*101 _082_
*102 _083_
*103 _084_
*104 _085_
*105 _086_
*106 _087_
*107 _088_
*108 _089_
*109 _090_
*110 _091_
*111 _092_
*112 _093_
*113 _094_
*114 _095_
*115 _096_
*116 _097_
*117 _098_
*118 _099_
*119 _100_
*120 _101_
*121 _102_
*122 _103_
*123 _104_
*124 _105_
*125 _106_
*126 _107_
*127 _108_
*128 _109_
*129 _110_
*130 _111_
*131 _112_
*132 _113_
*133 _114_
*134 _115_
*135 _116_
*136 _117_
*137 _118_
*138 _119_
*139 _120_
*140 _121_
*141 _122_
*142 _123_
*143 _124_
*144 _125_
*145 _126_
*146 _127_
*147 _128_
*148 _129_
*149 _130_
*150 _131_
*151 _132_
*152 _133_
*153 _134_
*154 _135_
*155 _136_
*156 _137_
*157 _138_
*158 _139_
*159 _140_
*160 _141_
*161 _142_
*162 _143_
*163 _144_
*164 _145_
*165 _146_
*166 _147_
*167 _148_
*168 _149_
*169 _150_
*170 _151_
*171 _152_
*172 _153_
*173 _154_
*174 _155_
*175 _156_
*176 _157_
*177 _158_
*178 _159_
*179 _160_
*180 _161_
*181 _162_
*182 _163_
*183 _164_
*184 _165_
*185 _166_
*186 _167_
*187 _168_
*188 _169_
*189 _170_
*190 _171_
*191 _172_
*192 _173_
*193 _174_
*194 _175_
*195 _176_
*196 _177_
*197 _178_
*198 _179_
*199 _180_
*200 _181_
*201 _182_
*202 _183_
*203 _184_
*204 _185_
*205 _186_
*206 _187_
*207 _188_
*208 _189_
*209 _190_
*210 _191_
*211 _192_
*212 _193_
*213 _194_
*214 _195_
*215 _196_
*216 _197_
*217 _198_
*218 _199_
*219 _200_
*220 _201_
*221 _202_
*222 _203_
*223 _204_
*224 _205_
*225 _206_
*226 _207_
*227 _208_
*228 _209_
*229 _210_
*230 _211_
*231 _212_
*232 _213_
*233 _214_
*234 _215_
*235 _216_
*236 _217_
*237 _218_
*238 _219_
*239 _220_
*240 _221_
*241 _222_
*242 _223_
*243 _224_
*244 _225_
*245 _226_
*246 _227_
*247 _228_
*248 _229_
*249 _230_
*250 _231_
*251 _232_
*252 _233_
*253 _234_
*254 _235_
*255 _236_
*256 _237_
*257 _238_
*258 _239_
*259 _240_
*260 _241_
*261 _242_
*262 _243_
*263 _244_
*264 _245_
*265 _246_
*266 _247_
*267 _248_
*268 _249_
*269 _250_
*270 _251_
*271 _252_
*272 _253_
*273 _254_
*274 _255_
*275 _256_
*276 _257_
*277 _258_
*278 _259_
*279 _260_
*280 _261_
*281 _262_
*282 _263_
*283 _264_
*284 _265_
*285 _266_
*286 _267_
*287 _268_
*288 _269_
*289 _270_
*290 _271_
*291 _272_
*292 _273_
*293 _274_
*294 _275_
*295 _276_
*296 _277_
*297 _278_
*298 _279_
*299 _280_
*300 _281_
*301 _282_
*302 _283_
*303 _284_
*304 _285_
*305 _286_
*306 _287_
*307 _288_
*308 _289_
*309 _290_
*310 _291_
*311 _292_
*312 _293_
*313 _294_
*314 _295_
*315 _296_
*316 _297_
*317 _298_
*318 _299_
*319 _300_
*320 _301_
*321 _302_
*322 _303_
*323 _304_
*324 _305_
*325 _306_
*326 _307_
*327 _308_
*328 _309_
*329 _310_
*330 _311_
*331 _312_
*332 _313_
*333 _314_
*334 _315_
*335 _316_
*336 _317_
*337 _318_
*338 _319_
*339 _320_
*340 _321_
*341 _322_
*342 _323_
*343 _324_
*344 _325_
*345 _326_
*346 _327_
*347 _328_
*348 _329_
*349 _330_
*350 _331_
*351 _332_
*352 _333_
*353 _334_
*354 _335_
*355 _336_
*356 _337_
*357 _338_
*358 _339_
*359 _340_
*360 _341_
*361 _342_
*362 _343_
*363 _344_
*364 _345_
*365 _346_
*366 _347_
*367 _348_
*368 _349_
*369 _350_
*370 _351_
*371 _352_
*372 _353_
*373 _354_
*374 _355_
*375 _356_
*376 _357_
*377 _358_
*378 _359_
*379 clknet_0_io_in[0]
*380 clknet_3_0__leaf_io_in[0]
*381 clknet_3_1__leaf_io_in[0]
*382 clknet_3_2__leaf_io_in[0]
*383 clknet_3_3__leaf_io_in[0]
*384 clknet_3_4__leaf_io_in[0]
*385 clknet_3_5__leaf_io_in[0]
*386 clknet_3_6__leaf_io_in[0]
*387 clknet_3_7__leaf_io_in[0]
*388 counter\[0\]
*389 counter\[1\]
*390 counter\[2\]
*391 counter\[3\]
*392 counter\[4\]
*393 counter\[5\]
*394 counter\[6\]
*395 counter\[7\]
*396 cur_addr\[0\]
*397 cur_addr\[1\]
*398 cur_addr\[2\]
*399 in_buf\[0\]
*400 in_buf\[1\]
*401 in_buf\[2\]
*402 in_buf\[3\]
*403 in_buf\[4\]
*404 in_buf\[5\]
*405 in_buf\[6\]
*406 in_buf\[7\]
*407 is_on\$func\$\/work\/src\/pwm\.v\:53\$1\.\$result
*408 is_on\$func\$\/work\/src\/pwm\.v\:54\$2\.\$result
*409 is_on\$func\$\/work\/src\/pwm\.v\:55\$3\.\$result
*410 is_on\$func\$\/work\/src\/pwm\.v\:56\$4\.\$result
*411 is_on\$func\$\/work\/src\/pwm\.v\:57\$5\.\$result
*412 is_on\$func\$\/work\/src\/pwm\.v\:58\$6\.\$result
*413 is_on\$func\$\/work\/src\/pwm\.v\:59\$7\.\$result
*414 is_reading
*415 is_writing
*416 miso
*417 net1
*418 net2
*419 net3
*420 net4
*421 out_buf\[0\]
*422 out_buf\[1\]
*423 out_buf\[2\]
*424 out_buf\[3\]
*425 out_buf\[4\]
*426 out_buf\[5\]
*427 out_buf\[6\]
*428 prev_sclk
*429 pwm_level\[0\]\[0\]
*430 pwm_level\[0\]\[1\]
*431 pwm_level\[0\]\[2\]
*432 pwm_level\[0\]\[3\]
*433 pwm_level\[0\]\[4\]
*434 pwm_level\[0\]\[5\]
*435 pwm_level\[0\]\[6\]
*436 pwm_level\[0\]\[7\]
*437 pwm_level\[1\]\[0\]
*438 pwm_level\[1\]\[1\]
*439 pwm_level\[1\]\[2\]
*440 pwm_level\[1\]\[3\]
*441 pwm_level\[1\]\[4\]
*442 pwm_level\[1\]\[5\]
*443 pwm_level\[1\]\[6\]
*444 pwm_level\[1\]\[7\]
*445 pwm_level\[2\]\[0\]
*446 pwm_level\[2\]\[1\]
*447 pwm_level\[2\]\[2\]
*448 pwm_level\[2\]\[3\]
*449 pwm_level\[2\]\[4\]
*450 pwm_level\[2\]\[5\]
*451 pwm_level\[2\]\[6\]
*452 pwm_level\[2\]\[7\]
*453 pwm_level\[3\]\[0\]
*454 pwm_level\[3\]\[1\]
*455 pwm_level\[3\]\[2\]
*456 pwm_level\[3\]\[3\]
*457 pwm_level\[3\]\[4\]
*458 pwm_level\[3\]\[5\]
*459 pwm_level\[3\]\[6\]
*460 pwm_level\[3\]\[7\]
*461 pwm_level\[4\]\[0\]
*462 pwm_level\[4\]\[1\]
*463 pwm_level\[4\]\[2\]
*464 pwm_level\[4\]\[3\]
*465 pwm_level\[4\]\[4\]
*466 pwm_level\[4\]\[5\]
*467 pwm_level\[4\]\[6\]
*468 pwm_level\[4\]\[7\]
*469 pwm_level\[5\]\[0\]
*470 pwm_level\[5\]\[1\]
*471 pwm_level\[5\]\[2\]
*472 pwm_level\[5\]\[3\]
*473 pwm_level\[5\]\[4\]
*474 pwm_level\[5\]\[5\]
*475 pwm_level\[5\]\[6\]
*476 pwm_level\[5\]\[7\]
*477 pwm_level\[6\]\[0\]
*478 pwm_level\[6\]\[1\]
*479 pwm_level\[6\]\[2\]
*480 pwm_level\[6\]\[3\]
*481 pwm_level\[6\]\[4\]
*482 pwm_level\[6\]\[5\]
*483 pwm_level\[6\]\[6\]
*484 pwm_level\[6\]\[7\]
*485 spi_counter\[0\]
*486 spi_counter\[1\]
*487 spi_counter\[2\]
*488 ANTENNA_1
*489 ANTENNA_10
*490 ANTENNA_2
*491 ANTENNA_3
*492 ANTENNA_4
*493 ANTENNA_5
*494 ANTENNA_6
*495 ANTENNA_7
*496 ANTENNA_8
*497 ANTENNA_9
*498 FILLER_0_103
*499 FILLER_0_111
*500 FILLER_0_113
*501 FILLER_0_131
*502 FILLER_0_139
*503 FILLER_0_141
*504 FILLER_0_159
*505 FILLER_0_163
*506 FILLER_0_167
*507 FILLER_0_169
*508 FILLER_0_181
*509 FILLER_0_193
*510 FILLER_0_197
*511 FILLER_0_209
*512 FILLER_0_221
*513 FILLER_0_225
*514 FILLER_0_237
*515 FILLER_0_249
*516 FILLER_0_253
*517 FILLER_0_26
*518 FILLER_0_265
*519 FILLER_0_277
*520 FILLER_0_281
*521 FILLER_0_29
*522 FILLER_0_293
*523 FILLER_0_3
*524 FILLER_0_54
*525 FILLER_0_57
*526 FILLER_0_65
*527 FILLER_0_82
*528 FILLER_0_85
*529 FILLER_10_104
*530 FILLER_10_124
*531 FILLER_10_128
*532 FILLER_10_134
*533 FILLER_10_141
*534 FILLER_10_164
*535 FILLER_10_172
*536 FILLER_10_181
*537 FILLER_10_194
*538 FILLER_10_197
*539 FILLER_10_202
*540 FILLER_10_213
*541 FILLER_10_22
*542 FILLER_10_225
*543 FILLER_10_237
*544 FILLER_10_249
*545 FILLER_10_253
*546 FILLER_10_265
*547 FILLER_10_277
*548 FILLER_10_289
*549 FILLER_10_29
*550 FILLER_10_297
*551 FILLER_10_3
*552 FILLER_10_35
*553 FILLER_10_52
*554 FILLER_10_72
*555 FILLER_10_85
*556 FILLER_11_101
*557 FILLER_11_110
*558 FILLER_11_113
*559 FILLER_11_123
*560 FILLER_11_134
*561 FILLER_11_138
*562 FILLER_11_146
*563 FILLER_11_15
*564 FILLER_11_158
*565 FILLER_11_166
*566 FILLER_11_169
*567 FILLER_11_184
*568 FILLER_11_200
*569 FILLER_11_212
*570 FILLER_11_225
*571 FILLER_11_239
*572 FILLER_11_251
*573 FILLER_11_263
*574 FILLER_11_275
*575 FILLER_11_279
*576 FILLER_11_281
*577 FILLER_11_293
*578 FILLER_11_3
*579 FILLER_11_36
*580 FILLER_11_48
*581 FILLER_11_57
*582 FILLER_11_69
*583 FILLER_11_93
*584 FILLER_12_103
*585 FILLER_12_123
*586 FILLER_12_134
*587 FILLER_12_141
*588 FILLER_12_149
*589 FILLER_12_155
*590 FILLER_12_160
*591 FILLER_12_166
*592 FILLER_12_174
*593 FILLER_12_183
*594 FILLER_12_192
*595 FILLER_12_197
*596 FILLER_12_209
*597 FILLER_12_216
*598 FILLER_12_22
*599 FILLER_12_228
*600 FILLER_12_240
*601 FILLER_12_253
*602 FILLER_12_265
*603 FILLER_12_277
*604 FILLER_12_289
*605 FILLER_12_29
*606 FILLER_12_297
*607 FILLER_12_3
*608 FILLER_12_34
*609 FILLER_12_52
*610 FILLER_12_56
*611 FILLER_12_73
*612 FILLER_12_81
*613 FILLER_12_85
*614 FILLER_13_102
*615 FILLER_13_110
*616 FILLER_13_113
*617 FILLER_13_128
*618 FILLER_13_137
*619 FILLER_13_141
*620 FILLER_13_150
*621 FILLER_13_158
*622 FILLER_13_164
*623 FILLER_13_169
*624 FILLER_13_177
*625 FILLER_13_185
*626 FILLER_13_198
*627 FILLER_13_206
*628 FILLER_13_222
*629 FILLER_13_225
*630 FILLER_13_237
*631 FILLER_13_249
*632 FILLER_13_261
*633 FILLER_13_273
*634 FILLER_13_279
*635 FILLER_13_281
*636 FILLER_13_29
*637 FILLER_13_293
*638 FILLER_13_3
*639 FILLER_13_50
*640 FILLER_13_57
*641 FILLER_13_81
*642 FILLER_13_9
*643 FILLER_14_103
*644 FILLER_14_122
*645 FILLER_14_133
*646 FILLER_14_139
*647 FILLER_14_141
*648 FILLER_14_147
*649 FILLER_14_153
*650 FILLER_14_162
*651 FILLER_14_170
*652 FILLER_14_178
*653 FILLER_14_188
*654 FILLER_14_197
*655 FILLER_14_209
*656 FILLER_14_221
*657 FILLER_14_233
*658 FILLER_14_245
*659 FILLER_14_251
*660 FILLER_14_253
*661 FILLER_14_26
*662 FILLER_14_265
*663 FILLER_14_271
*664 FILLER_14_275
*665 FILLER_14_287
*666 FILLER_14_29
*667 FILLER_14_3
*668 FILLER_14_48
*669 FILLER_14_68
*670 FILLER_14_80
*671 FILLER_14_85
*672 FILLER_15_102
*673 FILLER_15_110
*674 FILLER_15_113
*675 FILLER_15_122
*676 FILLER_15_128
*677 FILLER_15_136
*678 FILLER_15_148
*679 FILLER_15_154
*680 FILLER_15_16
*681 FILLER_15_162
*682 FILLER_15_169
*683 FILLER_15_177
*684 FILLER_15_184
*685 FILLER_15_196
*686 FILLER_15_210
*687 FILLER_15_222
*688 FILLER_15_225
*689 FILLER_15_235
*690 FILLER_15_247
*691 FILLER_15_259
*692 FILLER_15_271
*693 FILLER_15_279
*694 FILLER_15_281
*695 FILLER_15_293
*696 FILLER_15_3
*697 FILLER_15_34
*698 FILLER_15_54
*699 FILLER_15_57
*700 FILLER_15_65
*701 FILLER_15_8
*702 FILLER_15_82
*703 FILLER_16_104
*704 FILLER_16_123
*705 FILLER_16_131
*706 FILLER_16_138
*707 FILLER_16_141
*708 FILLER_16_148
*709 FILLER_16_163
*710 FILLER_16_175
*711 FILLER_16_186
*712 FILLER_16_194
*713 FILLER_16_197
*714 FILLER_16_206
*715 FILLER_16_21
*716 FILLER_16_214
*717 FILLER_16_223
*718 FILLER_16_231
*719 FILLER_16_238
*720 FILLER_16_250
*721 FILLER_16_253
*722 FILLER_16_261
*723 FILLER_16_27
*724 FILLER_16_273
*725 FILLER_16_285
*726 FILLER_16_29
*727 FILLER_16_297
*728 FILLER_16_3
*729 FILLER_16_48
*730 FILLER_16_60
*731 FILLER_16_64
*732 FILLER_16_82
*733 FILLER_16_85
*734 FILLER_17_105
*735 FILLER_17_111
*736 FILLER_17_113
*737 FILLER_17_121
*738 FILLER_17_129
*739 FILLER_17_133
*740 FILLER_17_139
*741 FILLER_17_15
*742 FILLER_17_151
*743 FILLER_17_161
*744 FILLER_17_167
*745 FILLER_17_169
*746 FILLER_17_174
*747 FILLER_17_182
*748 FILLER_17_205
*749 FILLER_17_211
*750 FILLER_17_219
*751 FILLER_17_223
*752 FILLER_17_225
*753 FILLER_17_237
*754 FILLER_17_249
*755 FILLER_17_261
*756 FILLER_17_273
*757 FILLER_17_279
*758 FILLER_17_281
*759 FILLER_17_293
*760 FILLER_17_3
*761 FILLER_17_36
*762 FILLER_17_48
*763 FILLER_17_57
*764 FILLER_17_69
*765 FILLER_17_93
*766 FILLER_18_103
*767 FILLER_18_111
*768 FILLER_18_121
*769 FILLER_18_125
*770 FILLER_18_129
*771 FILLER_18_137
*772 FILLER_18_141
*773 FILLER_18_151
*774 FILLER_18_163
*775 FILLER_18_168
*776 FILLER_18_180
*777 FILLER_18_192
*778 FILLER_18_197
*779 FILLER_18_209
*780 FILLER_18_21
*781 FILLER_18_213
*782 FILLER_18_220
*783 FILLER_18_232
*784 FILLER_18_244
*785 FILLER_18_253
*786 FILLER_18_261
*787 FILLER_18_27
*788 FILLER_18_273
*789 FILLER_18_285
*790 FILLER_18_29
*791 FILLER_18_297
*792 FILLER_18_3
*793 FILLER_18_48
*794 FILLER_18_60
*795 FILLER_18_82
*796 FILLER_18_85
*797 FILLER_19_107
*798 FILLER_19_111
*799 FILLER_19_113
*800 FILLER_19_130
*801 FILLER_19_155
*802 FILLER_19_159
*803 FILLER_19_164
*804 FILLER_19_169
*805 FILLER_19_181
*806 FILLER_19_185
*807 FILLER_19_190
*808 FILLER_19_198
*809 FILLER_19_207
*810 FILLER_19_211
*811 FILLER_19_218
*812 FILLER_19_22
*813 FILLER_19_225
*814 FILLER_19_237
*815 FILLER_19_249
*816 FILLER_19_261
*817 FILLER_19_273
*818 FILLER_19_279
*819 FILLER_19_281
*820 FILLER_19_293
*821 FILLER_19_3
*822 FILLER_19_34
*823 FILLER_19_54
*824 FILLER_19_57
*825 FILLER_19_69
*826 FILLER_19_93
*827 FILLER_19_99
*828 FILLER_1_104
*829 FILLER_1_129
*830 FILLER_1_133
*831 FILLER_1_151
*832 FILLER_1_162
*833 FILLER_1_169
*834 FILLER_1_181
*835 FILLER_1_193
*836 FILLER_1_205
*837 FILLER_1_217
*838 FILLER_1_22
*839 FILLER_1_223
*840 FILLER_1_225
*841 FILLER_1_237
*842 FILLER_1_249
*843 FILLER_1_261
*844 FILLER_1_273
*845 FILLER_1_279
*846 FILLER_1_281
*847 FILLER_1_293
*848 FILLER_1_3
*849 FILLER_1_34
*850 FILLER_1_52
*851 FILLER_1_57
*852 FILLER_1_82
*853 FILLER_1_86
*854 FILLER_20_103
*855 FILLER_20_115
*856 FILLER_20_127
*857 FILLER_20_139
*858 FILLER_20_141
*859 FILLER_20_149
*860 FILLER_20_162
*861 FILLER_20_171
*862 FILLER_20_183
*863 FILLER_20_195
*864 FILLER_20_197
*865 FILLER_20_22
*866 FILLER_20_222
*867 FILLER_20_234
*868 FILLER_20_246
*869 FILLER_20_253
*870 FILLER_20_265
*871 FILLER_20_277
*872 FILLER_20_289
*873 FILLER_20_29
*874 FILLER_20_297
*875 FILLER_20_3
*876 FILLER_20_41
*877 FILLER_20_61
*878 FILLER_20_82
*879 FILLER_20_85
*880 FILLER_21_110
*881 FILLER_21_113
*882 FILLER_21_123
*883 FILLER_21_135
*884 FILLER_21_147
*885 FILLER_21_153
*886 FILLER_21_161
*887 FILLER_21_167
*888 FILLER_21_169
*889 FILLER_21_173
*890 FILLER_21_176
*891 FILLER_21_199
*892 FILLER_21_206
*893 FILLER_21_218
*894 FILLER_21_22
*895 FILLER_21_225
*896 FILLER_21_236
*897 FILLER_21_248
*898 FILLER_21_260
*899 FILLER_21_272
*900 FILLER_21_281
*901 FILLER_21_293
*902 FILLER_21_3
*903 FILLER_21_34
*904 FILLER_21_51
*905 FILLER_21_55
*906 FILLER_21_57
*907 FILLER_21_69
*908 FILLER_21_90
*909 FILLER_22_105
*910 FILLER_22_117
*911 FILLER_22_129
*912 FILLER_22_137
*913 FILLER_22_141
*914 FILLER_22_165
*915 FILLER_22_177
*916 FILLER_22_189
*917 FILLER_22_195
*918 FILLER_22_197
*919 FILLER_22_209
*920 FILLER_22_219
*921 FILLER_22_231
*922 FILLER_22_243
*923 FILLER_22_251
*924 FILLER_22_253
*925 FILLER_22_26
*926 FILLER_22_265
*927 FILLER_22_277
*928 FILLER_22_289
*929 FILLER_22_29
*930 FILLER_22_297
*931 FILLER_22_3
*932 FILLER_22_46
*933 FILLER_22_50
*934 FILLER_22_68
*935 FILLER_22_80
*936 FILLER_22_85
*937 FILLER_22_97
*938 FILLER_23_101
*939 FILLER_23_109
*940 FILLER_23_113
*941 FILLER_23_121
*942 FILLER_23_129
*943 FILLER_23_143
*944 FILLER_23_155
*945 FILLER_23_167
*946 FILLER_23_169
*947 FILLER_23_175
*948 FILLER_23_179
*949 FILLER_23_188
*950 FILLER_23_200
*951 FILLER_23_21
*952 FILLER_23_212
*953 FILLER_23_225
*954 FILLER_23_237
*955 FILLER_23_249
*956 FILLER_23_261
*957 FILLER_23_273
*958 FILLER_23_279
*959 FILLER_23_281
*960 FILLER_23_293
*961 FILLER_23_3
*962 FILLER_23_46
*963 FILLER_23_54
*964 FILLER_23_57
*965 FILLER_23_69
*966 FILLER_23_89
*967 FILLER_24_110
*968 FILLER_24_118
*969 FILLER_24_128
*970 FILLER_24_141
*971 FILLER_24_149
*972 FILLER_24_156
*973 FILLER_24_162
*974 FILLER_24_185
*975 FILLER_24_193
*976 FILLER_24_197
*977 FILLER_24_21
*978 FILLER_24_210
*979 FILLER_24_218
*980 FILLER_24_228
*981 FILLER_24_240
*982 FILLER_24_253
*983 FILLER_24_265
*984 FILLER_24_27
*985 FILLER_24_277
*986 FILLER_24_289
*987 FILLER_24_29
*988 FILLER_24_297
*989 FILLER_24_3
*990 FILLER_24_49
*991 FILLER_24_61
*992 FILLER_24_73
*993 FILLER_24_81
*994 FILLER_24_85
*995 FILLER_24_97
*996 FILLER_25_105
*997 FILLER_25_111
*998 FILLER_25_113
*999 FILLER_25_125
*1000 FILLER_25_137
*1001 FILLER_25_145
*1002 FILLER_25_15
*1003 FILLER_25_150
*1004 FILLER_25_164
*1005 FILLER_25_169
*1006 FILLER_25_177
*1007 FILLER_25_182
*1008 FILLER_25_194
*1009 FILLER_25_212
*1010 FILLER_25_225
*1011 FILLER_25_237
*1012 FILLER_25_249
*1013 FILLER_25_261
*1014 FILLER_25_273
*1015 FILLER_25_279
*1016 FILLER_25_281
*1017 FILLER_25_293
*1018 FILLER_25_3
*1019 FILLER_25_33
*1020 FILLER_25_45
*1021 FILLER_25_53
*1022 FILLER_25_57
*1023 FILLER_25_66
*1024 FILLER_25_70
*1025 FILLER_25_78
*1026 FILLER_25_93
*1027 FILLER_26_112
*1028 FILLER_26_124
*1029 FILLER_26_136
*1030 FILLER_26_141
*1031 FILLER_26_15
*1032 FILLER_26_152
*1033 FILLER_26_162
*1034 FILLER_26_173
*1035 FILLER_26_181
*1036 FILLER_26_190
*1037 FILLER_26_197
*1038 FILLER_26_20
*1039 FILLER_26_203
*1040 FILLER_26_209
*1041 FILLER_26_221
*1042 FILLER_26_225
*1043 FILLER_26_229
*1044 FILLER_26_241
*1045 FILLER_26_249
*1046 FILLER_26_253
*1047 FILLER_26_265
*1048 FILLER_26_277
*1049 FILLER_26_289
*1050 FILLER_26_29
*1051 FILLER_26_297
*1052 FILLER_26_3
*1053 FILLER_26_40
*1054 FILLER_26_51
*1055 FILLER_26_70
*1056 FILLER_26_81
*1057 FILLER_26_85
*1058 FILLER_26_96
*1059 FILLER_27_108
*1060 FILLER_27_113
*1061 FILLER_27_121
*1062 FILLER_27_133
*1063 FILLER_27_145
*1064 FILLER_27_157
*1065 FILLER_27_165
*1066 FILLER_27_169
*1067 FILLER_27_181
*1068 FILLER_27_193
*1069 FILLER_27_20
*1070 FILLER_27_205
*1071 FILLER_27_217
*1072 FILLER_27_223
*1073 FILLER_27_225
*1074 FILLER_27_232
*1075 FILLER_27_244
*1076 FILLER_27_256
*1077 FILLER_27_268
*1078 FILLER_27_281
*1079 FILLER_27_293
*1080 FILLER_27_3
*1081 FILLER_27_31
*1082 FILLER_27_40
*1083 FILLER_27_47
*1084 FILLER_27_55
*1085 FILLER_27_57
*1086 FILLER_27_69
*1087 FILLER_27_81
*1088 FILLER_27_93
*1089 FILLER_28_109
*1090 FILLER_28_116
*1091 FILLER_28_128
*1092 FILLER_28_13
*1093 FILLER_28_141
*1094 FILLER_28_153
*1095 FILLER_28_165
*1096 FILLER_28_177
*1097 FILLER_28_189
*1098 FILLER_28_195
*1099 FILLER_28_197
*1100 FILLER_28_203
*1101 FILLER_28_211
*1102 FILLER_28_223
*1103 FILLER_28_235
*1104 FILLER_28_24
*1105 FILLER_28_247
*1106 FILLER_28_251
*1107 FILLER_28_253
*1108 FILLER_28_265
*1109 FILLER_28_277
*1110 FILLER_28_289
*1111 FILLER_28_29
*1112 FILLER_28_297
*1113 FILLER_28_3
*1114 FILLER_28_42
*1115 FILLER_28_59
*1116 FILLER_28_71
*1117 FILLER_28_79
*1118 FILLER_28_83
*1119 FILLER_28_85
*1120 FILLER_28_97
*1121 FILLER_29_110
*1122 FILLER_29_113
*1123 FILLER_29_119
*1124 FILLER_29_129
*1125 FILLER_29_154
*1126 FILLER_29_163
*1127 FILLER_29_167
*1128 FILLER_29_169
*1129 FILLER_29_184
*1130 FILLER_29_195
*1131 FILLER_29_20
*1132 FILLER_29_206
*1133 FILLER_29_218
*1134 FILLER_29_225
*1135 FILLER_29_237
*1136 FILLER_29_249
*1137 FILLER_29_261
*1138 FILLER_29_27
*1139 FILLER_29_273
*1140 FILLER_29_279
*1141 FILLER_29_281
*1142 FILLER_29_293
*1143 FILLER_29_3
*1144 FILLER_29_39
*1145 FILLER_29_54
*1146 FILLER_29_57
*1147 FILLER_29_69
*1148 FILLER_29_73
*1149 FILLER_29_8
*1150 FILLER_29_83
*1151 FILLER_29_89
*1152 FILLER_29_98
*1153 FILLER_2_101
*1154 FILLER_2_105
*1155 FILLER_2_123
*1156 FILLER_2_134
*1157 FILLER_2_141
*1158 FILLER_2_150
*1159 FILLER_2_159
*1160 FILLER_2_171
*1161 FILLER_2_183
*1162 FILLER_2_195
*1163 FILLER_2_197
*1164 FILLER_2_209
*1165 FILLER_2_22
*1166 FILLER_2_221
*1167 FILLER_2_233
*1168 FILLER_2_245
*1169 FILLER_2_251
*1170 FILLER_2_253
*1171 FILLER_2_265
*1172 FILLER_2_277
*1173 FILLER_2_289
*1174 FILLER_2_29
*1175 FILLER_2_297
*1176 FILLER_2_3
*1177 FILLER_2_54
*1178 FILLER_2_58
*1179 FILLER_2_76
*1180 FILLER_30_10
*1181 FILLER_30_109
*1182 FILLER_30_121
*1183 FILLER_30_132
*1184 FILLER_30_141
*1185 FILLER_30_160
*1186 FILLER_30_172
*1187 FILLER_30_180
*1188 FILLER_30_186
*1189 FILLER_30_194
*1190 FILLER_30_197
*1191 FILLER_30_203
*1192 FILLER_30_208
*1193 FILLER_30_212
*1194 FILLER_30_218
*1195 FILLER_30_22
*1196 FILLER_30_230
*1197 FILLER_30_242
*1198 FILLER_30_250
*1199 FILLER_30_253
*1200 FILLER_30_26
*1201 FILLER_30_265
*1202 FILLER_30_277
*1203 FILLER_30_289
*1204 FILLER_30_29
*1205 FILLER_30_297
*1206 FILLER_30_3
*1207 FILLER_30_41
*1208 FILLER_30_54
*1209 FILLER_30_66
*1210 FILLER_30_79
*1211 FILLER_30_83
*1212 FILLER_30_85
*1213 FILLER_30_95
*1214 FILLER_30_99
*1215 FILLER_31_100
*1216 FILLER_31_113
*1217 FILLER_31_125
*1218 FILLER_31_137
*1219 FILLER_31_149
*1220 FILLER_31_15
*1221 FILLER_31_155
*1222 FILLER_31_163
*1223 FILLER_31_167
*1224 FILLER_31_169
*1225 FILLER_31_178
*1226 FILLER_31_186
*1227 FILLER_31_19
*1228 FILLER_31_195
*1229 FILLER_31_208
*1230 FILLER_31_218
*1231 FILLER_31_225
*1232 FILLER_31_237
*1233 FILLER_31_249
*1234 FILLER_31_25
*1235 FILLER_31_261
*1236 FILLER_31_273
*1237 FILLER_31_279
*1238 FILLER_31_281
*1239 FILLER_31_293
*1240 FILLER_31_3
*1241 FILLER_31_38
*1242 FILLER_31_53
*1243 FILLER_31_57
*1244 FILLER_31_64
*1245 FILLER_31_76
*1246 FILLER_31_88
*1247 FILLER_31_9
*1248 FILLER_32_10
*1249 FILLER_32_101
*1250 FILLER_32_113
*1251 FILLER_32_119
*1252 FILLER_32_129
*1253 FILLER_32_137
*1254 FILLER_32_141
*1255 FILLER_32_149
*1256 FILLER_32_157
*1257 FILLER_32_169
*1258 FILLER_32_173
*1259 FILLER_32_18
*1260 FILLER_32_181
*1261 FILLER_32_185
*1262 FILLER_32_194
*1263 FILLER_32_197
*1264 FILLER_32_209
*1265 FILLER_32_221
*1266 FILLER_32_23
*1267 FILLER_32_233
*1268 FILLER_32_245
*1269 FILLER_32_251
*1270 FILLER_32_253
*1271 FILLER_32_265
*1272 FILLER_32_27
*1273 FILLER_32_277
*1274 FILLER_32_289
*1275 FILLER_32_29
*1276 FILLER_32_297
*1277 FILLER_32_3
*1278 FILLER_32_44
*1279 FILLER_32_51
*1280 FILLER_32_55
*1281 FILLER_32_65
*1282 FILLER_32_77
*1283 FILLER_32_83
*1284 FILLER_32_85
*1285 FILLER_32_89
*1286 FILLER_32_93
*1287 FILLER_33_108
*1288 FILLER_33_113
*1289 FILLER_33_125
*1290 FILLER_33_133
*1291 FILLER_33_142
*1292 FILLER_33_15
*1293 FILLER_33_155
*1294 FILLER_33_166
*1295 FILLER_33_169
*1296 FILLER_33_180
*1297 FILLER_33_184
*1298 FILLER_33_193
*1299 FILLER_33_205
*1300 FILLER_33_217
*1301 FILLER_33_22
*1302 FILLER_33_223
*1303 FILLER_33_225
*1304 FILLER_33_237
*1305 FILLER_33_249
*1306 FILLER_33_261
*1307 FILLER_33_273
*1308 FILLER_33_279
*1309 FILLER_33_281
*1310 FILLER_33_29
*1311 FILLER_33_293
*1312 FILLER_33_3
*1313 FILLER_33_36
*1314 FILLER_33_49
*1315 FILLER_33_55
*1316 FILLER_33_57
*1317 FILLER_33_65
*1318 FILLER_33_71
*1319 FILLER_33_82
*1320 FILLER_33_93
*1321 FILLER_34_106
*1322 FILLER_34_118
*1323 FILLER_34_13
*1324 FILLER_34_130
*1325 FILLER_34_138
*1326 FILLER_34_141
*1327 FILLER_34_149
*1328 FILLER_34_160
*1329 FILLER_34_17
*1330 FILLER_34_171
*1331 FILLER_34_183
*1332 FILLER_34_195
*1333 FILLER_34_197
*1334 FILLER_34_209
*1335 FILLER_34_217
*1336 FILLER_34_229
*1337 FILLER_34_241
*1338 FILLER_34_249
*1339 FILLER_34_253
*1340 FILLER_34_26
*1341 FILLER_34_265
*1342 FILLER_34_277
*1343 FILLER_34_289
*1344 FILLER_34_29
*1345 FILLER_34_297
*1346 FILLER_34_3
*1347 FILLER_34_43
*1348 FILLER_34_53
*1349 FILLER_34_65
*1350 FILLER_34_74
*1351 FILLER_34_82
*1352 FILLER_34_85
*1353 FILLER_34_9
*1354 FILLER_34_97
*1355 FILLER_35_110
*1356 FILLER_35_113
*1357 FILLER_35_128
*1358 FILLER_35_140
*1359 FILLER_35_15
*1360 FILLER_35_154
*1361 FILLER_35_165
*1362 FILLER_35_169
*1363 FILLER_35_184
*1364 FILLER_35_200
*1365 FILLER_35_212
*1366 FILLER_35_225
*1367 FILLER_35_23
*1368 FILLER_35_237
*1369 FILLER_35_249
*1370 FILLER_35_261
*1371 FILLER_35_273
*1372 FILLER_35_279
*1373 FILLER_35_281
*1374 FILLER_35_293
*1375 FILLER_35_3
*1376 FILLER_35_31
*1377 FILLER_35_42
*1378 FILLER_35_54
*1379 FILLER_35_57
*1380 FILLER_35_72
*1381 FILLER_35_80
*1382 FILLER_35_88
*1383 FILLER_35_9
*1384 FILLER_35_98
*1385 FILLER_36_102
*1386 FILLER_36_110
*1387 FILLER_36_125
*1388 FILLER_36_138
*1389 FILLER_36_14
*1390 FILLER_36_141
*1391 FILLER_36_153
*1392 FILLER_36_165
*1393 FILLER_36_174
*1394 FILLER_36_186
*1395 FILLER_36_194
*1396 FILLER_36_197
*1397 FILLER_36_207
*1398 FILLER_36_21
*1399 FILLER_36_219
*1400 FILLER_36_227
*1401 FILLER_36_234
*1402 FILLER_36_246
*1403 FILLER_36_253
*1404 FILLER_36_265
*1405 FILLER_36_27
*1406 FILLER_36_277
*1407 FILLER_36_289
*1408 FILLER_36_29
*1409 FILLER_36_297
*1410 FILLER_36_3
*1411 FILLER_36_36
*1412 FILLER_36_43
*1413 FILLER_36_51
*1414 FILLER_36_60
*1415 FILLER_36_66
*1416 FILLER_36_74
*1417 FILLER_36_78
*1418 FILLER_36_82
*1419 FILLER_36_85
*1420 FILLER_36_9
*1421 FILLER_36_94
*1422 FILLER_37_109
*1423 FILLER_37_113
*1424 FILLER_37_13
*1425 FILLER_37_132
*1426 FILLER_37_144
*1427 FILLER_37_150
*1428 FILLER_37_158
*1429 FILLER_37_166
*1430 FILLER_37_169
*1431 FILLER_37_179
*1432 FILLER_37_191
*1433 FILLER_37_199
*1434 FILLER_37_208
*1435 FILLER_37_21
*1436 FILLER_37_220
*1437 FILLER_37_225
*1438 FILLER_37_230
*1439 FILLER_37_242
*1440 FILLER_37_254
*1441 FILLER_37_266
*1442 FILLER_37_278
*1443 FILLER_37_281
*1444 FILLER_37_293
*1445 FILLER_37_3
*1446 FILLER_37_30
*1447 FILLER_37_36
*1448 FILLER_37_41
*1449 FILLER_37_54
*1450 FILLER_37_57
*1451 FILLER_37_7
*1452 FILLER_37_73
*1453 FILLER_37_81
*1454 FILLER_37_88
*1455 FILLER_37_97
*1456 FILLER_38_100
*1457 FILLER_38_112
*1458 FILLER_38_123
*1459 FILLER_38_135
*1460 FILLER_38_139
*1461 FILLER_38_141
*1462 FILLER_38_15
*1463 FILLER_38_152
*1464 FILLER_38_166
*1465 FILLER_38_178
*1466 FILLER_38_190
*1467 FILLER_38_197
*1468 FILLER_38_203
*1469 FILLER_38_215
*1470 FILLER_38_227
*1471 FILLER_38_239
*1472 FILLER_38_251
*1473 FILLER_38_253
*1474 FILLER_38_26
*1475 FILLER_38_265
*1476 FILLER_38_277
*1477 FILLER_38_289
*1478 FILLER_38_29
*1479 FILLER_38_297
*1480 FILLER_38_3
*1481 FILLER_38_33
*1482 FILLER_38_42
*1483 FILLER_38_50
*1484 FILLER_38_61
*1485 FILLER_38_76
*1486 FILLER_38_85
*1487 FILLER_38_93
*1488 FILLER_39_101
*1489 FILLER_39_110
*1490 FILLER_39_113
*1491 FILLER_39_125
*1492 FILLER_39_133
*1493 FILLER_39_138
*1494 FILLER_39_149
*1495 FILLER_39_15
*1496 FILLER_39_161
*1497 FILLER_39_167
*1498 FILLER_39_169
*1499 FILLER_39_181
*1500 FILLER_39_193
*1501 FILLER_39_205
*1502 FILLER_39_217
*1503 FILLER_39_223
*1504 FILLER_39_225
*1505 FILLER_39_237
*1506 FILLER_39_249
*1507 FILLER_39_261
*1508 FILLER_39_27
*1509 FILLER_39_273
*1510 FILLER_39_279
*1511 FILLER_39_281
*1512 FILLER_39_293
*1513 FILLER_39_3
*1514 FILLER_39_31
*1515 FILLER_39_35
*1516 FILLER_39_43
*1517 FILLER_39_52
*1518 FILLER_39_57
*1519 FILLER_39_71
*1520 FILLER_39_83
*1521 FILLER_39_93
*1522 FILLER_3_101
*1523 FILLER_3_110
*1524 FILLER_3_113
*1525 FILLER_3_131
*1526 FILLER_3_15
*1527 FILLER_3_151
*1528 FILLER_3_160
*1529 FILLER_3_169
*1530 FILLER_3_181
*1531 FILLER_3_191
*1532 FILLER_3_199
*1533 FILLER_3_211
*1534 FILLER_3_223
*1535 FILLER_3_225
*1536 FILLER_3_237
*1537 FILLER_3_249
*1538 FILLER_3_261
*1539 FILLER_3_273
*1540 FILLER_3_279
*1541 FILLER_3_281
*1542 FILLER_3_293
*1543 FILLER_3_3
*1544 FILLER_3_36
*1545 FILLER_3_48
*1546 FILLER_3_57
*1547 FILLER_3_61
*1548 FILLER_3_69
*1549 FILLER_3_93
*1550 FILLER_40_106
*1551 FILLER_40_118
*1552 FILLER_40_123
*1553 FILLER_40_127
*1554 FILLER_40_135
*1555 FILLER_40_139
*1556 FILLER_40_141
*1557 FILLER_40_148
*1558 FILLER_40_15
*1559 FILLER_40_166
*1560 FILLER_40_178
*1561 FILLER_40_190
*1562 FILLER_40_197
*1563 FILLER_40_209
*1564 FILLER_40_221
*1565 FILLER_40_23
*1566 FILLER_40_233
*1567 FILLER_40_245
*1568 FILLER_40_251
*1569 FILLER_40_253
*1570 FILLER_40_265
*1571 FILLER_40_27
*1572 FILLER_40_277
*1573 FILLER_40_289
*1574 FILLER_40_29
*1575 FILLER_40_297
*1576 FILLER_40_3
*1577 FILLER_40_34
*1578 FILLER_40_46
*1579 FILLER_40_54
*1580 FILLER_40_63
*1581 FILLER_40_73
*1582 FILLER_40_82
*1583 FILLER_40_85
*1584 FILLER_40_94
*1585 FILLER_40_98
*1586 FILLER_41_10
*1587 FILLER_41_110
*1588 FILLER_41_113
*1589 FILLER_41_136
*1590 FILLER_41_14
*1591 FILLER_41_144
*1592 FILLER_41_153
*1593 FILLER_41_159
*1594 FILLER_41_166
*1595 FILLER_41_169
*1596 FILLER_41_181
*1597 FILLER_41_193
*1598 FILLER_41_205
*1599 FILLER_41_217
*1600 FILLER_41_22
*1601 FILLER_41_223
*1602 FILLER_41_225
*1603 FILLER_41_237
*1604 FILLER_41_249
*1605 FILLER_41_261
*1606 FILLER_41_273
*1607 FILLER_41_279
*1608 FILLER_41_281
*1609 FILLER_41_293
*1610 FILLER_41_3
*1611 FILLER_41_30
*1612 FILLER_41_38
*1613 FILLER_41_54
*1614 FILLER_41_57
*1615 FILLER_41_65
*1616 FILLER_41_76
*1617 FILLER_41_82
*1618 FILLER_41_88
*1619 FILLER_41_98
*1620 FILLER_42_102
*1621 FILLER_42_111
*1622 FILLER_42_119
*1623 FILLER_42_127
*1624 FILLER_42_138
*1625 FILLER_42_141
*1626 FILLER_42_145
*1627 FILLER_42_15
*1628 FILLER_42_153
*1629 FILLER_42_164
*1630 FILLER_42_174
*1631 FILLER_42_186
*1632 FILLER_42_194
*1633 FILLER_42_197
*1634 FILLER_42_209
*1635 FILLER_42_221
*1636 FILLER_42_23
*1637 FILLER_42_233
*1638 FILLER_42_245
*1639 FILLER_42_251
*1640 FILLER_42_253
*1641 FILLER_42_265
*1642 FILLER_42_27
*1643 FILLER_42_277
*1644 FILLER_42_289
*1645 FILLER_42_29
*1646 FILLER_42_297
*1647 FILLER_42_3
*1648 FILLER_42_41
*1649 FILLER_42_48
*1650 FILLER_42_59
*1651 FILLER_42_70
*1652 FILLER_42_82
*1653 FILLER_42_85
*1654 FILLER_42_94
*1655 FILLER_43_109
*1656 FILLER_43_113
*1657 FILLER_43_123
*1658 FILLER_43_127
*1659 FILLER_43_136
*1660 FILLER_43_148
*1661 FILLER_43_15
*1662 FILLER_43_160
*1663 FILLER_43_169
*1664 FILLER_43_181
*1665 FILLER_43_193
*1666 FILLER_43_205
*1667 FILLER_43_217
*1668 FILLER_43_223
*1669 FILLER_43_225
*1670 FILLER_43_237
*1671 FILLER_43_249
*1672 FILLER_43_261
*1673 FILLER_43_27
*1674 FILLER_43_273
*1675 FILLER_43_279
*1676 FILLER_43_281
*1677 FILLER_43_293
*1678 FILLER_43_3
*1679 FILLER_43_39
*1680 FILLER_43_47
*1681 FILLER_43_55
*1682 FILLER_43_57
*1683 FILLER_43_65
*1684 FILLER_43_77
*1685 FILLER_43_88
*1686 FILLER_43_99