*SPEF "ieee 1481-1999"
*DESIGN "krasin_3_bit_8_channel_pwm_driver"
*DATE "11:11:11 Fri 11 11, 1111"
*VENDOR "OpenRCX"
*PROGRAM "Parallel Extraction"
*VERSION "1.0"
*DESIGN_FLOW "NAME_SCOPE LOCAL" "PIN_CAP NONE"
*DIVIDER /
*DELIMITER :
*BUS_DELIMITER []
*T_UNIT 1 NS
*C_UNIT 1 PF
*R_UNIT 1 OHM
*L_UNIT 1 HENRY

*NAME_MAP
*1 io_in[0]
*2 io_in[1]
*3 io_in[2]
*4 io_in[3]
*5 io_in[4]
*6 io_in[5]
*7 io_in[6]
*8 io_in[7]
*9 io_out[0]
*10 io_out[1]
*11 io_out[2]
*12 io_out[3]
*13 io_out[4]
*14 io_out[5]
*15 io_out[6]
*16 io_out[7]
*19 _000_
*20 _001_
*21 _002_
*22 _003_
*23 _004_
*24 _005_
*25 _006_
*26 _007_
*27 _008_
*28 _009_
*29 _010_
*30 _011_
*31 _012_
*32 _013_
*33 _014_
*34 _015_
*35 _016_
*36 _017_
*37 _018_
*38 _019_
*39 _020_
*40 _022_
*41 _023_
*42 _024_
*43 _025_
*44 _026_
*45 _027_
*46 _028_
*47 _029_
*48 _030_
*49 _031_
*50 _032_
*51 _033_
*52 _034_
*53 _035_
*54 _036_
*55 _037_
*56 _038_
*57 _039_
*58 _040_
*59 _041_
*60 _042_
*61 _043_
*62 _044_
*63 _045_
*64 _046_
*65 _047_
*66 _048_
*67 _049_
*68 _050_
*69 _051_
*70 _052_
*71 _053_
*72 _054_
*73 _055_
*74 _056_
*75 _057_
*76 _058_
*77 _059_
*78 _060_
*79 _061_
*80 _062_
*81 _063_
*82 _064_
*83 _065_
*84 _066_
*85 _067_
*86 _068_
*87 _069_
*88 _070_
*89 _071_
*90 _072_
*91 _073_
*92 _074_
*93 _075_
*94 _076_
*95 _077_
*96 _078_
*97 _079_
*98 _080_
*99 _081_
*100 _082_
*101 _083_
*102 _084_
*103 _085_
*104 _086_
*105 _087_
*106 _088_
*107 _089_
*108 _090_
*109 _091_
*110 _092_
*111 _093_
*112 _094_
*113 _095_
*114 _096_
*115 _097_
*116 _098_
*117 _099_
*118 _100_
*119 _101_
*120 _102_
*121 _103_
*122 _104_
*123 _105_
*124 _106_
*125 _107_
*126 _108_
*127 _109_
*128 _110_
*129 _111_
*130 _112_
*131 _113_
*132 _114_
*133 _115_
*134 clknet_0_io_in[0]
*135 clknet_1_0__leaf_io_in[0]
*136 clknet_1_1__leaf_io_in[0]
*137 counter\[0\]
*138 counter\[1\]
*139 counter\[2\]
*140 is_on\$func\$\/work\/src\/pwm\.v\:54\$1\.\$result
*141 is_on\$func\$\/work\/src\/pwm\.v\:55\$2\.\$result
*142 is_on\$func\$\/work\/src\/pwm\.v\:56\$3\.\$result
*143 is_on\$func\$\/work\/src\/pwm\.v\:57\$4\.\$result
*144 is_on\$func\$\/work\/src\/pwm\.v\:58\$5\.\$result
*145 is_on\$func\$\/work\/src\/pwm\.v\:59\$6\.\$result
*146 is_on\$func\$\/work\/src\/pwm\.v\:60\$7\.\$result
*147 is_on\$func\$\/work\/src\/pwm\.v\:61\$8\.\$result
*148 net1
*149 net2
*150 net3
*151 net4
*152 net5
*153 net6
*154 net7
*155 net8
*156 pwm0_level\[0\]
*157 pwm0_level\[1\]
*158 pwm0_level\[2\]
*159 pwm1_level\[0\]
*160 pwm1_level\[1\]
*161 pwm1_level\[2\]
*162 pwm2_level\[0\]
*163 pwm2_level\[1\]
*164 pwm2_level\[2\]
*165 pwm3_level\[0\]
*166 pwm3_level\[1\]
*167 pwm3_level\[2\]
*168 pwm4_level\[0\]
*169 pwm4_level\[1\]
*170 pwm4_level\[2\]
*171 pwm5_level\[0\]
*172 pwm5_level\[1\]
*173 pwm5_level\[2\]
*174 pwm6_level\[0\]
*175 pwm6_level\[1\]
*176 pwm6_level\[2\]
*177 pwm7_level\[0\]
*178 pwm7_level\[1\]
*179 pwm7_level\[2\]
*180 reset_canary\[0\]
*181 ANTENNA_1
*182 FILLER_0_103
*183 FILLER_0_111
*184 FILLER_0_113
*185 FILLER_0_125
*186 FILLER_0_137
*187 FILLER_0_141
*188 FILLER_0_153
*189 FILLER_0_165
*190 FILLER_0_169
*191 FILLER_0_181
*192 FILLER_0_193
*193 FILLER_0_197
*194 FILLER_0_209
*195 FILLER_0_21
*196 FILLER_0_221
*197 FILLER_0_225
*198 FILLER_0_237
*199 FILLER_0_249
*200 FILLER_0_253
*201 FILLER_0_265
*202 FILLER_0_27
*203 FILLER_0_277
*204 FILLER_0_281
*205 FILLER_0_29
*206 FILLER_0_293
*207 FILLER_0_3
*208 FILLER_0_51
*209 FILLER_0_55
*210 FILLER_0_57
*211 FILLER_0_76
*212 FILLER_0_85
*213 FILLER_10_109
*214 FILLER_10_121
*215 FILLER_10_133
*216 FILLER_10_139
*217 FILLER_10_141
*218 FILLER_10_153
*219 FILLER_10_165
*220 FILLER_10_177
*221 FILLER_10_189
*222 FILLER_10_195
*223 FILLER_10_197
*224 FILLER_10_209
*225 FILLER_10_21
*226 FILLER_10_221
*227 FILLER_10_233
*228 FILLER_10_245
*229 FILLER_10_251
*230 FILLER_10_253
*231 FILLER_10_265
*232 FILLER_10_27
*233 FILLER_10_277
*234 FILLER_10_289
*235 FILLER_10_29
*236 FILLER_10_297
*237 FILLER_10_3
*238 FILLER_10_41
*239 FILLER_10_48
*240 FILLER_10_60
*241 FILLER_10_72
*242 FILLER_10_85
*243 FILLER_10_97
*244 FILLER_11_110
*245 FILLER_11_113
*246 FILLER_11_125
*247 FILLER_11_137
*248 FILLER_11_149
*249 FILLER_11_161
*250 FILLER_11_167
*251 FILLER_11_169
*252 FILLER_11_181
*253 FILLER_11_193
*254 FILLER_11_205
*255 FILLER_11_21
*256 FILLER_11_217
*257 FILLER_11_223
*258 FILLER_11_225
*259 FILLER_11_237
*260 FILLER_11_249
*261 FILLER_11_261
*262 FILLER_11_273
*263 FILLER_11_279
*264 FILLER_11_281
*265 FILLER_11_293
*266 FILLER_11_3
*267 FILLER_11_33
*268 FILLER_11_45
*269 FILLER_11_53
*270 FILLER_11_57
*271 FILLER_11_69
*272 FILLER_11_81
*273 FILLER_11_86
*274 FILLER_11_9
*275 FILLER_11_98
*276 FILLER_12_109
*277 FILLER_12_121
*278 FILLER_12_133
*279 FILLER_12_139
*280 FILLER_12_141
*281 FILLER_12_153
*282 FILLER_12_165
*283 FILLER_12_177
*284 FILLER_12_189
*285 FILLER_12_19
*286 FILLER_12_195
*287 FILLER_12_197
*288 FILLER_12_209
*289 FILLER_12_221
*290 FILLER_12_233
*291 FILLER_12_245
*292 FILLER_12_251
*293 FILLER_12_253
*294 FILLER_12_265
*295 FILLER_12_27
*296 FILLER_12_277
*297 FILLER_12_289
*298 FILLER_12_29
*299 FILLER_12_297
*300 FILLER_12_3
*301 FILLER_12_41
*302 FILLER_12_53
*303 FILLER_12_65
*304 FILLER_12_77
*305 FILLER_12_83
*306 FILLER_12_85
*307 FILLER_12_97
*308 FILLER_13_105
*309 FILLER_13_111
*310 FILLER_13_113
*311 FILLER_13_125
*312 FILLER_13_137
*313 FILLER_13_149
*314 FILLER_13_161
*315 FILLER_13_167
*316 FILLER_13_169
*317 FILLER_13_181
*318 FILLER_13_19
*319 FILLER_13_193
*320 FILLER_13_205
*321 FILLER_13_217
*322 FILLER_13_223
*323 FILLER_13_225
*324 FILLER_13_237
*325 FILLER_13_249
*326 FILLER_13_261
*327 FILLER_13_27
*328 FILLER_13_273
*329 FILLER_13_279
*330 FILLER_13_281
*331 FILLER_13_293
*332 FILLER_13_3
*333 FILLER_13_34
*334 FILLER_13_46
*335 FILLER_13_52
*336 FILLER_13_57
*337 FILLER_13_69
*338 FILLER_13_81
*339 FILLER_13_9
*340 FILLER_13_93
*341 FILLER_14_109
*342 FILLER_14_121
*343 FILLER_14_133
*344 FILLER_14_139
*345 FILLER_14_141
*346 FILLER_14_153
*347 FILLER_14_165
*348 FILLER_14_177
*349 FILLER_14_189
*350 FILLER_14_195
*351 FILLER_14_197
*352 FILLER_14_20
*353 FILLER_14_209
*354 FILLER_14_221
*355 FILLER_14_233
*356 FILLER_14_245
*357 FILLER_14_251
*358 FILLER_14_253
*359 FILLER_14_265
*360 FILLER_14_277
*361 FILLER_14_289
*362 FILLER_14_29
*363 FILLER_14_297
*364 FILLER_14_3
*365 FILLER_14_42
*366 FILLER_14_50
*367 FILLER_14_56
*368 FILLER_14_68
*369 FILLER_14_80
*370 FILLER_14_85
*371 FILLER_14_9
*372 FILLER_14_97
*373 FILLER_15_107
*374 FILLER_15_111
*375 FILLER_15_113
*376 FILLER_15_125
*377 FILLER_15_137
*378 FILLER_15_149
*379 FILLER_15_161
*380 FILLER_15_167
*381 FILLER_15_169
*382 FILLER_15_181
*383 FILLER_15_19
*384 FILLER_15_193
*385 FILLER_15_205
*386 FILLER_15_217
*387 FILLER_15_223
*388 FILLER_15_225
*389 FILLER_15_23
*390 FILLER_15_237
*391 FILLER_15_249
*392 FILLER_15_261
*393 FILLER_15_273
*394 FILLER_15_279
*395 FILLER_15_28
*396 FILLER_15_281
*397 FILLER_15_293
*398 FILLER_15_3
*399 FILLER_15_35
*400 FILLER_15_42
*401 FILLER_15_54
*402 FILLER_15_57
*403 FILLER_15_69
*404 FILLER_15_77
*405 FILLER_15_83
*406 FILLER_15_95
*407 FILLER_16_10
*408 FILLER_16_109
*409 FILLER_16_121
*410 FILLER_16_133
*411 FILLER_16_139
*412 FILLER_16_141
*413 FILLER_16_153
*414 FILLER_16_159
*415 FILLER_16_171
*416 FILLER_16_183
*417 FILLER_16_195
*418 FILLER_16_197
*419 FILLER_16_209
*420 FILLER_16_221
*421 FILLER_16_23
*422 FILLER_16_233
*423 FILLER_16_245
*424 FILLER_16_251
*425 FILLER_16_253
*426 FILLER_16_265
*427 FILLER_16_27
*428 FILLER_16_277
*429 FILLER_16_289
*430 FILLER_16_29
*431 FILLER_16_297
*432 FILLER_16_3
*433 FILLER_16_34
*434 FILLER_16_46
*435 FILLER_16_58
*436 FILLER_16_70
*437 FILLER_16_82
*438 FILLER_16_85
*439 FILLER_16_97
*440 FILLER_17_105
*441 FILLER_17_111
*442 FILLER_17_113
*443 FILLER_17_125
*444 FILLER_17_137
*445 FILLER_17_149
*446 FILLER_17_161
*447 FILLER_17_167
*448 FILLER_17_169
*449 FILLER_17_17
*450 FILLER_17_181
*451 FILLER_17_193
*452 FILLER_17_205
*453 FILLER_17_217
*454 FILLER_17_223
*455 FILLER_17_225
*456 FILLER_17_237
*457 FILLER_17_249
*458 FILLER_17_25
*459 FILLER_17_261
*460 FILLER_17_273
*461 FILLER_17_279
*462 FILLER_17_281
*463 FILLER_17_293
*464 FILLER_17_3
*465 FILLER_17_36
*466 FILLER_17_48
*467 FILLER_17_57
*468 FILLER_17_69
*469 FILLER_17_7
*470 FILLER_17_81
*471 FILLER_17_93
*472 FILLER_18_102
*473 FILLER_18_114
*474 FILLER_18_126
*475 FILLER_18_13
*476 FILLER_18_138
*477 FILLER_18_141
*478 FILLER_18_153
*479 FILLER_18_168
*480 FILLER_18_180
*481 FILLER_18_192
*482 FILLER_18_197
*483 FILLER_18_209
*484 FILLER_18_22
*485 FILLER_18_221
*486 FILLER_18_233
*487 FILLER_18_245
*488 FILLER_18_251
*489 FILLER_18_253
*490 FILLER_18_265
*491 FILLER_18_277
*492 FILLER_18_289
*493 FILLER_18_29
*494 FILLER_18_297
*495 FILLER_18_3
*496 FILLER_18_41
*497 FILLER_18_53
*498 FILLER_18_65
*499 FILLER_18_77
*500 FILLER_18_83
*501 FILLER_18_85
*502 FILLER_18_93
*503 FILLER_19_110
*504 FILLER_19_113
*505 FILLER_19_125
*506 FILLER_19_137
*507 FILLER_19_149
*508 FILLER_19_16
*509 FILLER_19_161
*510 FILLER_19_167
*511 FILLER_19_169
*512 FILLER_19_181
*513 FILLER_19_193
*514 FILLER_19_205
*515 FILLER_19_217
*516 FILLER_19_223
*517 FILLER_19_225
*518 FILLER_19_237
*519 FILLER_19_24
*520 FILLER_19_249
*521 FILLER_19_261
*522 FILLER_19_273
*523 FILLER_19_279
*524 FILLER_19_28
*525 FILLER_19_281
*526 FILLER_19_293
*527 FILLER_19_3
*528 FILLER_19_40
*529 FILLER_19_52
*530 FILLER_19_57
*531 FILLER_19_69
*532 FILLER_19_86
*533 FILLER_19_98
*534 FILLER_1_102
*535 FILLER_1_11
*536 FILLER_1_110
*537 FILLER_1_113
*538 FILLER_1_125
*539 FILLER_1_137
*540 FILLER_1_149
*541 FILLER_1_161
*542 FILLER_1_167
*543 FILLER_1_169
*544 FILLER_1_181
*545 FILLER_1_193
*546 FILLER_1_205
*547 FILLER_1_217
*548 FILLER_1_223
*549 FILLER_1_225
*550 FILLER_1_237
*551 FILLER_1_249
*552 FILLER_1_261
*553 FILLER_1_273
*554 FILLER_1_279
*555 FILLER_1_281
*556 FILLER_1_293
*557 FILLER_1_3
*558 FILLER_1_31
*559 FILLER_1_37
*560 FILLER_1_54
*561 FILLER_1_57
*562 FILLER_1_61
*563 FILLER_1_78
*564 FILLER_1_90
*565 FILLER_20_109
*566 FILLER_20_121
*567 FILLER_20_133
*568 FILLER_20_139
*569 FILLER_20_141
*570 FILLER_20_153
*571 FILLER_20_165
*572 FILLER_20_17
*573 FILLER_20_177
*574 FILLER_20_189
*575 FILLER_20_195
*576 FILLER_20_197
*577 FILLER_20_201
*578 FILLER_20_205
*579 FILLER_20_217
*580 FILLER_20_229
*581 FILLER_20_241
*582 FILLER_20_249
*583 FILLER_20_253
*584 FILLER_20_26
*585 FILLER_20_265
*586 FILLER_20_277
*587 FILLER_20_289
*588 FILLER_20_29
*589 FILLER_20_297
*590 FILLER_20_3
*591 FILLER_20_46
*592 FILLER_20_58
*593 FILLER_20_70
*594 FILLER_20_82
*595 FILLER_20_85
*596 FILLER_20_9
*597 FILLER_20_97
*598 FILLER_21_105
*599 FILLER_21_111
*600 FILLER_21_113
*601 FILLER_21_12
*602 FILLER_21_125
*603 FILLER_21_137
*604 FILLER_21_149
*605 FILLER_21_161
*606 FILLER_21_167
*607 FILLER_21_169
*608 FILLER_21_18
*609 FILLER_21_181
*610 FILLER_21_193
*611 FILLER_21_205
*612 FILLER_21_217
*613 FILLER_21_223
*614 FILLER_21_225
*615 FILLER_21_237
*616 FILLER_21_249
*617 FILLER_21_261
*618 FILLER_21_273
*619 FILLER_21_279
*620 FILLER_21_28
*621 FILLER_21_281
*622 FILLER_21_293
*623 FILLER_21_3
*624 FILLER_21_40
*625 FILLER_21_52
*626 FILLER_21_57
*627 FILLER_21_69
*628 FILLER_21_81
*629 FILLER_21_93
*630 FILLER_22_106
*631 FILLER_22_118
*632 FILLER_22_130
*633 FILLER_22_138
*634 FILLER_22_141
*635 FILLER_22_153
*636 FILLER_22_160
*637 FILLER_22_17
*638 FILLER_22_172
*639 FILLER_22_184
*640 FILLER_22_197
*641 FILLER_22_209
*642 FILLER_22_221
*643 FILLER_22_233
*644 FILLER_22_24
*645 FILLER_22_245
*646 FILLER_22_251
*647 FILLER_22_253
*648 FILLER_22_265
*649 FILLER_22_277
*650 FILLER_22_289
*651 FILLER_22_29
*652 FILLER_22_297
*653 FILLER_22_3
*654 FILLER_22_37
*655 FILLER_22_42
*656 FILLER_22_54
*657 FILLER_22_66
*658 FILLER_22_78
*659 FILLER_22_85
*660 FILLER_22_9
*661 FILLER_22_94
*662 FILLER_23_109
*663 FILLER_23_113
*664 FILLER_23_125
*665 FILLER_23_137
*666 FILLER_23_149
*667 FILLER_23_15
*668 FILLER_23_161
*669 FILLER_23_167
*670 FILLER_23_169
*671 FILLER_23_181
*672 FILLER_23_193
*673 FILLER_23_205
*674 FILLER_23_21
*675 FILLER_23_217
*676 FILLER_23_223
*677 FILLER_23_225
*678 FILLER_23_237
*679 FILLER_23_249
*680 FILLER_23_26
*681 FILLER_23_261
*682 FILLER_23_273
*683 FILLER_23_279
*684 FILLER_23_281
*685 FILLER_23_293
*686 FILLER_23_3
*687 FILLER_23_38
*688 FILLER_23_42
*689 FILLER_23_48
*690 FILLER_23_57
*691 FILLER_23_65
*692 FILLER_23_7
*693 FILLER_23_73
*694 FILLER_23_85
*695 FILLER_23_97
*696 FILLER_24_109
*697 FILLER_24_121
*698 FILLER_24_133
*699 FILLER_24_139
*700 FILLER_24_141
*701 FILLER_24_150
*702 FILLER_24_16
*703 FILLER_24_162
*704 FILLER_24_174
*705 FILLER_24_186
*706 FILLER_24_194
*707 FILLER_24_197
*708 FILLER_24_209
*709 FILLER_24_221
*710 FILLER_24_233
*711 FILLER_24_245
*712 FILLER_24_251
*713 FILLER_24_253
*714 FILLER_24_265
*715 FILLER_24_277
*716 FILLER_24_289
*717 FILLER_24_29
*718 FILLER_24_297
*719 FILLER_24_3
*720 FILLER_24_36
*721 FILLER_24_48
*722 FILLER_24_60
*723 FILLER_24_72
*724 FILLER_24_85
*725 FILLER_24_9
*726 FILLER_24_97
*727 FILLER_25_107
*728 FILLER_25_111
*729 FILLER_25_113
*730 FILLER_25_125
*731 FILLER_25_137
*732 FILLER_25_149
*733 FILLER_25_15
*734 FILLER_25_155
*735 FILLER_25_161
*736 FILLER_25_167
*737 FILLER_25_169
*738 FILLER_25_181
*739 FILLER_25_193
*740 FILLER_25_205
*741 FILLER_25_217
*742 FILLER_25_223
*743 FILLER_25_225
*744 FILLER_25_237
*745 FILLER_25_249
*746 FILLER_25_261
*747 FILLER_25_27
*748 FILLER_25_273
*749 FILLER_25_279
*750 FILLER_25_281
*751 FILLER_25_293
*752 FILLER_25_3
*753 FILLER_25_39
*754 FILLER_25_51
*755 FILLER_25_55
*756 FILLER_25_57
*757 FILLER_25_69
*758 FILLER_25_73
*759 FILLER_25_83
*760 FILLER_25_95
*761 FILLER_26_109
*762 FILLER_26_121
*763 FILLER_26_133
*764 FILLER_26_139
*765 FILLER_26_14
*766 FILLER_26_141
*767 FILLER_26_153
*768 FILLER_26_165
*769 FILLER_26_177
*770 FILLER_26_189
*771 FILLER_26_195
*772 FILLER_26_197
*773 FILLER_26_209
*774 FILLER_26_221
*775 FILLER_26_235
*776 FILLER_26_247
*777 FILLER_26_251
*778 FILLER_26_253
*779 FILLER_26_26
*780 FILLER_26_265
*781 FILLER_26_277
*782 FILLER_26_289
*783 FILLER_26_29
*784 FILLER_26_297
*785 FILLER_26_3
*786 FILLER_26_41
*787 FILLER_26_58
*788 FILLER_26_70
*789 FILLER_26_82
*790 FILLER_26_85
*791 FILLER_26_97
*792 FILLER_27_108
*793 FILLER_27_113
*794 FILLER_27_125
*795 FILLER_27_137
*796 FILLER_27_149
*797 FILLER_27_161
*798 FILLER_27_167
*799 FILLER_27_169
*800 FILLER_27_184
*801 FILLER_27_196
*802 FILLER_27_208
*803 FILLER_27_21
*804 FILLER_27_220
*805 FILLER_27_225
*806 FILLER_27_237
*807 FILLER_27_249
*808 FILLER_27_261
*809 FILLER_27_273
*810 FILLER_27_279
*811 FILLER_27_281
*812 FILLER_27_293
*813 FILLER_27_3
*814 FILLER_27_33
*815 FILLER_27_46
*816 FILLER_27_54
*817 FILLER_27_57
*818 FILLER_27_72
*819 FILLER_27_84
*820 FILLER_27_9
*821 FILLER_27_96
*822 FILLER_28_109
*823 FILLER_28_121
*824 FILLER_28_131
*825 FILLER_28_139
*826 FILLER_28_141
*827 FILLER_28_15
*828 FILLER_28_153
*829 FILLER_28_165
*830 FILLER_28_177
*831 FILLER_28_189
*832 FILLER_28_195
*833 FILLER_28_197
*834 FILLER_28_209
*835 FILLER_28_221
*836 FILLER_28_233
*837 FILLER_28_245
*838 FILLER_28_251
*839 FILLER_28_253
*840 FILLER_28_265
*841 FILLER_28_27
*842 FILLER_28_277
*843 FILLER_28_289
*844 FILLER_28_29
*845 FILLER_28_297
*846 FILLER_28_3
*847 FILLER_28_41
*848 FILLER_28_53
*849 FILLER_28_65
*850 FILLER_28_77
*851 FILLER_28_83
*852 FILLER_28_85
*853 FILLER_28_97
*854 FILLER_29_105
*855 FILLER_29_111
*856 FILLER_29_113
*857 FILLER_29_123
*858 FILLER_29_135
*859 FILLER_29_147
*860 FILLER_29_15
*861 FILLER_29_159
*862 FILLER_29_167
*863 FILLER_29_169
*864 FILLER_29_181
*865 FILLER_29_193
*866 FILLER_29_205
*867 FILLER_29_217
*868 FILLER_29_223
*869 FILLER_29_225
*870 FILLER_29_237
*871 FILLER_29_249
*872 FILLER_29_261
*873 FILLER_29_273
*874 FILLER_29_279
*875 FILLER_29_28
*876 FILLER_29_281
*877 FILLER_29_293
*878 FILLER_29_3
*879 FILLER_29_41
*880 FILLER_29_53
*881 FILLER_29_57
*882 FILLER_29_69
*883 FILLER_29_81
*884 FILLER_29_93
*885 FILLER_2_109
*886 FILLER_2_121
*887 FILLER_2_133
*888 FILLER_2_139
*889 FILLER_2_141
*890 FILLER_2_153
*891 FILLER_2_165
*892 FILLER_2_177
*893 FILLER_2_189
*894 FILLER_2_195
*895 FILLER_2_197
*896 FILLER_2_209
*897 FILLER_2_21
*898 FILLER_2_221
*899 FILLER_2_233
*900 FILLER_2_245
*901 FILLER_2_251
*902 FILLER_2_253
*903 FILLER_2_265
*904 FILLER_2_27
*905 FILLER_2_277
*906 FILLER_2_289
*907 FILLER_2_29
*908 FILLER_2_297
*909 FILLER_2_3
*910 FILLER_2_40
*911 FILLER_2_44
*912 FILLER_2_65
*913 FILLER_2_77
*914 FILLER_2_83
*915 FILLER_2_85
*916 FILLER_2_97
*917 FILLER_30_109
*918 FILLER_30_117
*919 FILLER_30_129
*920 FILLER_30_137
*921 FILLER_30_141
*922 FILLER_30_15
*923 FILLER_30_153
*924 FILLER_30_165
*925 FILLER_30_177
*926 FILLER_30_185
*927 FILLER_30_194
*928 FILLER_30_197
*929 FILLER_30_209
*930 FILLER_30_221
*931 FILLER_30_233
*932 FILLER_30_245
*933 FILLER_30_251
*934 FILLER_30_253
*935 FILLER_30_265
*936 FILLER_30_27
*937 FILLER_30_277
*938 FILLER_30_289
*939 FILLER_30_29
*940 FILLER_30_297
*941 FILLER_30_3
*942 FILLER_30_41
*943 FILLER_30_54
*944 FILLER_30_66
*945 FILLER_30_78
*946 FILLER_30_85
*947 FILLER_30_97
*948 FILLER_31_105
*949 FILLER_31_111
*950 FILLER_31_113
*951 FILLER_31_126
*952 FILLER_31_138
*953 FILLER_31_14
*954 FILLER_31_147
*955 FILLER_31_159
*956 FILLER_31_167
*957 FILLER_31_169
*958 FILLER_31_181
*959 FILLER_31_193
*960 FILLER_31_205
*961 FILLER_31_217
*962 FILLER_31_223
*963 FILLER_31_225
*964 FILLER_31_237
*965 FILLER_31_249
*966 FILLER_31_261
*967 FILLER_31_273
*968 FILLER_31_279
*969 FILLER_31_281
*970 FILLER_31_293
*971 FILLER_31_3
*972 FILLER_31_35
*973 FILLER_31_47
*974 FILLER_31_55
*975 FILLER_31_57
*976 FILLER_31_69
*977 FILLER_31_81
*978 FILLER_31_93
*979 FILLER_32_109
*980 FILLER_32_113
*981 FILLER_32_123
*982 FILLER_32_137
*983 FILLER_32_141
*984 FILLER_32_15
*985 FILLER_32_153
*986 FILLER_32_165
*987 FILLER_32_177
*988 FILLER_32_189
*989 FILLER_32_195
*990 FILLER_32_197
*991 FILLER_32_209
*992 FILLER_32_221
*993 FILLER_32_233
*994 FILLER_32_245
*995 FILLER_32_25
*996 FILLER_32_251
*997 FILLER_32_253
*998 FILLER_32_265
*999 FILLER_32_277
*1000 FILLER_32_289
*1001 FILLER_32_29
*1002 FILLER_32_297
*1003 FILLER_32_3
*1004 FILLER_32_41
*1005 FILLER_32_53
*1006 FILLER_32_65
*1007 FILLER_32_77
*1008 FILLER_32_83
*1009 FILLER_32_85
*1010 FILLER_32_97
*1011 FILLER_33_101
*1012 FILLER_33_110
*1013 FILLER_33_113
*1014 FILLER_33_125
*1015 FILLER_33_137
*1016 FILLER_33_149
*1017 FILLER_33_15
*1018 FILLER_33_161
*1019 FILLER_33_167
*1020 FILLER_33_169
*1021 FILLER_33_181
*1022 FILLER_33_193
*1023 FILLER_33_205
*1024 FILLER_33_217
*1025 FILLER_33_223
*1026 FILLER_33_225
*1027 FILLER_33_237
*1028 FILLER_33_249
*1029 FILLER_33_261
*1030 FILLER_33_27
*1031 FILLER_33_273
*1032 FILLER_33_279
*1033 FILLER_33_281
*1034 FILLER_33_293
*1035 FILLER_33_3
*1036 FILLER_33_39
*1037 FILLER_33_51
*1038 FILLER_33_55
*1039 FILLER_33_57
*1040 FILLER_33_69
*1041 FILLER_33_81
*1042 FILLER_33_93
*1043 FILLER_34_109
*1044 FILLER_34_117
*1045 FILLER_34_126
*1046 FILLER_34_133
*1047 FILLER_34_139
*1048 FILLER_34_141
*1049 FILLER_34_146
*1050 FILLER_34_15
*1051 FILLER_34_158
*1052 FILLER_34_170
*1053 FILLER_34_182
*1054 FILLER_34_194
*1055 FILLER_34_197
*1056 FILLER_34_209
*1057 FILLER_34_221
*1058 FILLER_34_233
*1059 FILLER_34_245
*1060 FILLER_34_251
*1061 FILLER_34_253
*1062 FILLER_34_265
*1063 FILLER_34_27
*1064 FILLER_34_277
*1065 FILLER_34_289
*1066 FILLER_34_29
*1067 FILLER_34_297
*1068 FILLER_34_3
*1069 FILLER_34_40
*1070 FILLER_34_52
*1071 FILLER_34_64
*1072 FILLER_34_80
*1073 FILLER_34_85
*1074 FILLER_34_97
*1075 FILLER_35_108
*1076 FILLER_35_113
*1077 FILLER_35_121
*1078 FILLER_35_132
*1079 FILLER_35_144
*1080 FILLER_35_15
*1081 FILLER_35_156
*1082 FILLER_35_169
*1083 FILLER_35_181
*1084 FILLER_35_193
*1085 FILLER_35_205
*1086 FILLER_35_217
*1087 FILLER_35_223
*1088 FILLER_35_225
*1089 FILLER_35_237
*1090 FILLER_35_24
*1091 FILLER_35_249
*1092 FILLER_35_261
*1093 FILLER_35_273
*1094 FILLER_35_279
*1095 FILLER_35_281
*1096 FILLER_35_293
*1097 FILLER_35_3
*1098 FILLER_35_36
*1099 FILLER_35_48
*1100 FILLER_35_57
*1101 FILLER_35_69
*1102 FILLER_35_81
*1103 FILLER_35_96
*1104 FILLER_36_107
*1105 FILLER_36_11
*1106 FILLER_36_125
*1107 FILLER_36_137
*1108 FILLER_36_141
*1109 FILLER_36_148
*1110 FILLER_36_16
*1111 FILLER_36_160
*1112 FILLER_36_172
*1113 FILLER_36_184
*1114 FILLER_36_197
*1115 FILLER_36_209
*1116 FILLER_36_221
*1117 FILLER_36_233
*1118 FILLER_36_245
*1119 FILLER_36_251
*1120 FILLER_36_253
*1121 FILLER_36_265
*1122 FILLER_36_277
*1123 FILLER_36_289
*1124 FILLER_36_29
*1125 FILLER_36_297
*1126 FILLER_36_3
*1127 FILLER_36_41
*1128 FILLER_36_53
*1129 FILLER_36_65
*1130 FILLER_36_77
*1131 FILLER_36_83
*1132 FILLER_36_85
*1133 FILLER_36_95
*1134 FILLER_37_105
*1135 FILLER_37_110
*1136 FILLER_37_113
*1137 FILLER_37_124
*1138 FILLER_37_131
*1139 FILLER_37_143
*1140 FILLER_37_15
*1141 FILLER_37_155
*1142 FILLER_37_167
*1143 FILLER_37_169
*1144 FILLER_37_181
*1145 FILLER_37_193
*1146 FILLER_37_205
*1147 FILLER_37_217
*1148 FILLER_37_22
*1149 FILLER_37_223
*1150 FILLER_37_225
*1151 FILLER_37_237
*1152 FILLER_37_249
*1153 FILLER_37_261
*1154 FILLER_37_273
*1155 FILLER_37_279
*1156 FILLER_37_281
*1157 FILLER_37_29
*1158 FILLER_37_293
*1159 FILLER_37_3
*1160 FILLER_37_41
*1161 FILLER_37_53
*1162 FILLER_37_57
*1163 FILLER_37_69
*1164 FILLER_37_81
*1165 FILLER_37_93
*1166 FILLER_38_10
*1167 FILLER_38_109
*1168 FILLER_38_121
*1169 FILLER_38_129
*1170 FILLER_38_137
*1171 FILLER_38_141
*1172 FILLER_38_153
*1173 FILLER_38_165
*1174 FILLER_38_177
*1175 FILLER_38_189
*1176 FILLER_38_195
*1177 FILLER_38_197
*1178 FILLER_38_209
*1179 FILLER_38_21
*1180 FILLER_38_221
*1181 FILLER_38_233
*1182 FILLER_38_245
*1183 FILLER_38_251
*1184 FILLER_38_253
*1185 FILLER_38_265
*1186 FILLER_38_27
*1187 FILLER_38_277
*1188 FILLER_38_289
*1189 FILLER_38_29
*1190 FILLER_38_297
*1191 FILLER_38_3
*1192 FILLER_38_41
*1193 FILLER_38_52
*1194 FILLER_38_64
*1195 FILLER_38_76
*1196 FILLER_38_85
*1197 FILLER_38_97
*1198 FILLER_39_105
*1199 FILLER_39_111
*1200 FILLER_39_113
*1201 FILLER_39_125
*1202 FILLER_39_137
*1203 FILLER_39_14
*1204 FILLER_39_149
*1205 FILLER_39_161
*1206 FILLER_39_167
*1207 FILLER_39_169
*1208 FILLER_39_181
*1209 FILLER_39_193
*1210 FILLER_39_205
*1211 FILLER_39_217
*1212 FILLER_39_223
*1213 FILLER_39_225
*1214 FILLER_39_237
*1215 FILLER_39_249
*1216 FILLER_39_25
*1217 FILLER_39_261
*1218 FILLER_39_273
*1219 FILLER_39_279
*1220 FILLER_39_281
*1221 FILLER_39_293
*1222 FILLER_39_3
*1223 FILLER_39_46
*1224 FILLER_39_54
*1225 FILLER_39_57
*1226 FILLER_39_69
*1227 FILLER_39_81
*1228 FILLER_39_93
*1229 FILLER_3_104
*1230 FILLER_3_113
*1231 FILLER_3_125
*1232 FILLER_3_137
*1233 FILLER_3_149
*1234 FILLER_3_161
*1235 FILLER_3_167
*1236 FILLER_3_169
*1237 FILLER_3_181
*1238 FILLER_3_193
*1239 FILLER_3_205
*1240 FILLER_3_217
*1241 FILLER_3_223
*1242 FILLER_3_225
*1243 FILLER_3_237
*1244 FILLER_3_249
*1245 FILLER_3_25
*1246 FILLER_3_261
*1247 FILLER_3_273
*1248 FILLER_3_279
*1249 FILLER_3_281
*1250 FILLER_3_293
*1251 FILLER_3_3
*1252 FILLER_3_45
*1253 FILLER_3_53
*1254 FILLER_3_57
*1255 FILLER_3_63
*1256 FILLER_3_80
*1257 FILLER_3_92
*1258 FILLER_40_109
*1259 FILLER_40_121
*1260 FILLER_40_133
*1261 FILLER_40_139
*1262 FILLER_40_14
*1263 FILLER_40_141
*1264 FILLER_40_153
*1265 FILLER_40_165
*1266 FILLER_40_177
*1267 FILLER_40_189
*1268 FILLER_40_195
*1269 FILLER_40_197
*1270 FILLER_40_209
*1271 FILLER_40_221
*1272 FILLER_40_233
*1273 FILLER_40_245
*1274 FILLER_40_251
*1275 FILLER_40_253
*1276 FILLER_40_26
*1277 FILLER_40_265
*1278 FILLER_40_277
*1279 FILLER_40_289
*1280 FILLER_40_29
*1281 FILLER_40_297
*1282 FILLER_40_3
*1283 FILLER_40_41
*1284 FILLER_40_53
*1285 FILLER_40_65
*1286 FILLER_40_77
*1287 FILLER_40_83
*1288 FILLER_40_85
*1289 FILLER_40_97
*1290 FILLER_41_110
*1291 FILLER_41_113
*1292 FILLER_41_125
*1293 FILLER_41_13
*1294 FILLER_41_132
*1295 FILLER_41_144
*1296 FILLER_41_156
*1297 FILLER_41_169
*1298 FILLER_41_181
*1299 FILLER_41_193
*1300 FILLER_41_205
*1301 FILLER_41_217
*1302 FILLER_41_223
*1303 FILLER_41_225
*1304 FILLER_41_237
*1305 FILLER_41_24
*1306 FILLER_41_249
*1307 FILLER_41_261
*1308 FILLER_41_273
*1309 FILLER_41_279
*1310 FILLER_41_281
*1311 FILLER_41_293
*1312 FILLER_41_3
*1313 FILLER_41_32
*1314 FILLER_41_44
*1315 FILLER_41_54
*1316 FILLER_41_57
*1317 FILLER_41_62
*1318 FILLER_41_74
*1319 FILLER_41_86
*1320 FILLER_41_98
*1321 FILLER_42_109
*1322 FILLER_42_113
*1323 FILLER_42_121
*1324 FILLER_42_138
*1325 FILLER_42_14
*1326 FILLER_42_141
*1327 FILLER_42_147
*1328 FILLER_42_159
*1329 FILLER_42_171
*1330 FILLER_42_183
*1331 FILLER_42_195
*1332 FILLER_42_197
*1333 FILLER_42_209
*1334 FILLER_42_22
*1335 FILLER_42_221
*1336 FILLER_42_233
*1337 FILLER_42_245
*1338 FILLER_42_251
*1339 FILLER_42_253
*1340 FILLER_42_265
*1341 FILLER_42_277
*1342 FILLER_42_289
*1343 FILLER_42_29
*1344 FILLER_42_297
*1345 FILLER_42_3
*1346 FILLER_42_38
*1347 FILLER_42_49
*1348 FILLER_42_57
*1349 FILLER_42_63
*1350 FILLER_42_75
*1351 FILLER_42_83
*1352 FILLER_42_85
*1353 FILLER_42_9
*1354 FILLER_42_97
*1355 FILLER_43_102
*1356 FILLER_43_110
*1357 FILLER_43_113
*1358 FILLER_43_125
*1359 FILLER_43_137
*1360 FILLER_43_149
*1361 FILLER_43_15
*1362 FILLER_43_161
*1363 FILLER_43_167
*1364 FILLER_43_169
*1365 FILLER_43_181
*1366 FILLER_43_193
*1367 FILLER_43_205
*1368 FILLER_43_217
*1369 FILLER_43_223
*1370 FILLER_43_225
*1371 FILLER_43_237
*1372 FILLER_43_249
*1373 FILLER_43_261
*1374 FILLER_43_273
*1375 FILLER_43_279
*1376 FILLER_43_28
*1377 FILLER_43_281
*1378 FILLER_43_293
*1379 FILLER_43_3
*1380 FILLER_43_39
*1381 FILLER_43_51
*1382 FILLER_43_55
*1383 FILLER_43_57
*1384 FILLER_43_66
*1385 FILLER_43_78
*1386 FILLER_43_90
*1387 FILLER_44_109
*1388 FILLER_44_12
*1389 FILLER_44_121
*1390 FILLER_44_133
*1391 FILLER_44_139
*1392 FILLER_44_141
*1393 FILLER_44_153
*1394 FILLER_44_165
*1395 FILLER_44_177
*1396 FILLER_44_189
*1397 FILLER_44_195
*1398 FILLER_44_197
*1399 FILLER_44_20
*1400 FILLER_44_209
*1401 FILLER_44_221
*1402 FILLER_44_233
*1403 FILLER_44_245
*1404 FILLER_44_251
*1405 FILLER_44_253
*1406 FILLER_44_265
*1407 FILLER_44_277
*1408 FILLER_44_289
*1409 FILLER_44_29
*1410 FILLER_44_297
*1411 FILLER_44_3
*1412 FILLER_44_38
*1413 FILLER_44_50
*1414 FILLER_44_62
*1415 FILLER_44_74
*1416 FILLER_44_82
*1417 FILLER_44_85
*1418 FILLER_44_97
*1419 FILLER_45_103
*1420 FILLER_45_111
*1421 FILLER_45_113
*1422 FILLER_45_123
*1423 FILLER_45_135
*1424 FILLER_45_147
*1425 FILLER_45_159
*1426 FILLER_45_167
*1427 FILLER_45_169
*1428 FILLER_45_181
*1429 FILLER_45_193
*1430 FILLER_45_199
*1431 FILLER_45_20
*1432 FILLER_45_206
*1433 FILLER_45_218
*1434 FILLER_45_225
*1435 FILLER_45_237
*1436 FILLER_45_249
*1437 FILLER_45_261
*1438 FILLER_45_273
*1439 FILLER_45_279
*1440 FILLER_45_28
*1441 FILLER_45_281
*1442 FILLER_45_293
*1443 FILLER_45_3
*1444 FILLER_45_38
*1445 FILLER_45_44
*1446 FILLER_45_52
*1447 FILLER_45_57
*1448 FILLER_45_69
*1449 FILLER_45_8
*1450 FILLER_45_80
*1451 FILLER_45_92
*1452 FILLER_46_109
*1453 FILLER_46_121
*1454 FILLER_46_133
*1455 FILLER_46_139
*1456 FILLER_46_141
*1457 FILLER_46_149
*1458 FILLER_46_15
*1459 FILLER_46_156
*1460 FILLER_46_168
*1461 FILLER_46_180
*1462 FILLER_46_192
*1463 FILLER_46_197
*1464 FILLER_46_209
*1465 FILLER_46_221
*1466 FILLER_46_233
*1467 FILLER_46_245
*1468 FILLER_46_251
*1469 FILLER_46_253
*1470 FILLER_46_265
*1471 FILLER_46_27
*1472 FILLER_46_277
*1473 FILLER_46_289
*1474 FILLER_46_29
*1475 FILLER_46_297
*1476 FILLER_46_3
*1477 FILLER_46_41
*1478 FILLER_46_53
*1479 FILLER_46_65
*1480 FILLER_46_77
*1481 FILLER_46_83
*1482 FILLER_46_85
*1483 FILLER_46_97
*1484 FILLER_47_105
*1485 FILLER_47_111
*1486 FILLER_47_113
*1487 FILLER_47_125
*1488 FILLER_47_137
*1489 FILLER_47_149
*1490 FILLER_47_15
*1491 FILLER_47_161
*1492 FILLER_47_167
*1493 FILLER_47_169
*1494 FILLER_47_181
*1495 FILLER_47_193
*1496 FILLER_47_205
*1497 FILLER_47_217
*1498 FILLER_47_223
*1499 FILLER_47_225
*1500 FILLER_47_237
*1501 FILLER_47_249
*1502 FILLER_47_261
*1503 FILLER_47_27
*1504 FILLER_47_273
*1505 FILLER_47_279
*1506 FILLER_47_281
*1507 FILLER_47_293
*1508 FILLER_47_3
*1509 FILLER_47_39
*1510 FILLER_47_51
*1511 FILLER_47_55
*1512 FILLER_47_57
*1513 FILLER_47_69
*1514 FILLER_47_81
*1515 FILLER_47_93
*1516 FILLER_48_110
*1517 FILLER_48_122
*1518 FILLER_48_134
*1519 FILLER_48_141
*1520 FILLER_48_15
*1521 FILLER_48_153
*1522 FILLER_48_165
*1523 FILLER_48_177
*1524 FILLER_48_189
*1525 FILLER_48_195
*1526 FILLER_48_197
*1527 FILLER_48_209
*1528 FILLER_48_221
*1529 FILLER_48_233
*1530 FILLER_48_245
*1531 FILLER_48_251
*1532 FILLER_48_253
*1533 FILLER_48_265
*1534 FILLER_48_27
*1535 FILLER_48_277
*1536 FILLER_48_289
*1537 FILLER_48_29
*1538 FILLER_48_297
*1539 FILLER_48_3
*1540 FILLER_48_41
*1541 FILLER_48_53
*1542 FILLER_48_65
*1543 FILLER_48_76
*1544 FILLER_48_85
*1545 FILLER_48_93
*1546 FILLER_48_99
*1547 FILLER_49_105
*1548 FILLER_49_111
*1549 FILLER_49_113
*1550 FILLER_49_125
*1551 FILLER_49_137
*1552 FILLER_49_149
*1553 FILLER_49_15
*1554 FILLER_49_161
*1555 FILLER_49_167
*1556 FILLER_49_169
*1557 FILLER_49_181
*1558 FILLER_49_193
*1559 FILLER_49_205
*1560 FILLER_49_217
*1561 FILLER_49_223
*1562 FILLER_49_225
*1563 FILLER_49_237
*1564 FILLER_49_249
*1565 FILLER_49_261
*1566 FILLER_49_27
*1567 FILLER_49_273
*1568 FILLER_49_279
*1569 FILLER_49_281
*1570 FILLER_49_293
*1571 FILLER_49_3
*1572 FILLER_49_39
*1573 FILLER_49_51
*1574 FILLER_49_55
*1575 FILLER_49_57
*1576 FILLER_49_69
*1577 FILLER_49_81
*1578 FILLER_49_93
*1579 FILLER_4_109
*1580 FILLER_4_121
*1581 FILLER_4_133
*1582 FILLER_4_139
*1583 FILLER_4_141
*1584 FILLER_4_153
*1585 FILLER_4_165
*1586 FILLER_4_177
*1587 FILLER_4_189
*1588 FILLER_4_195
*1589 FILLER_4_197
*1590 FILLER_4_209
*1591 FILLER_4_221
*1592 FILLER_4_233
*1593 FILLER_4_245
*1594 FILLER_4_251
*1595 FILLER_4_253
*1596 FILLER_4_26
*1597 FILLER_4_265
*1598 FILLER_4_277
*1599 FILLER_4_289
*1600 FILLER_4_29
*1601 FILLER_4_297
*1602 FILLER_4_3
*1603 FILLER_4_47
*1604 FILLER_4_59
*1605 FILLER_4_62
*1606 FILLER_4_80
*1607 FILLER_4_85
*1608 FILLER_4_9
*1609 FILLER_4_97
*1610 FILLER_50_109