*SPEF "ieee 1481-1999"
*DESIGN "logisim_demo"
*DATE "11:11:11 Fri 11 11, 1111"
*VENDOR "OpenRCX"
*PROGRAM "Parallel Extraction"
*VERSION "1.0"
*DESIGN_FLOW "NAME_SCOPE LOCAL" "PIN_CAP NONE"
*DIVIDER /
*DELIMITER :
*BUS_DELIMITER []
*T_UNIT 1 NS
*C_UNIT 1 PF
*R_UNIT 1 OHM
*L_UNIT 1 HENRY

*NAME_MAP
*1 io_in[0]
*2 io_in[1]
*3 io_in[2]
*4 io_in[3]
*5 io_in[4]
*6 io_in[5]
*7 io_in[6]
*8 io_in[7]
*9 io_out[0]
*10 io_out[1]
*11 io_out[2]
*12 io_out[3]
*13 io_out[4]
*14 io_out[5]
*15 io_out[6]
*16 io_out[7]
*19 CIRCUIT_0\.A
*20 CIRCUIT_0\.B
*21 CIRCUIT_0\.C
*22 CIRCUIT_0\.F
*23 CIRCUIT_0\.G
*24 CIRCUIT_0\.MEMORY_1\.s_currentState
*25 CIRCUIT_0\.MEMORY_12\.d
*26 CIRCUIT_0\.MEMORY_12\.s_currentState
*27 CIRCUIT_0\.MEMORY_2\.s_currentState
*28 CIRCUIT_0\.MEMORY_3\.s_currentState
*29 CIRCUIT_0\.MEMORY_4\.s_currentState
*30 _00_
*31 _01_
*32 _02_
*33 _03_
*34 _04_
*35 _05_
*36 _06_
*37 _07_
*38 _08_
*39 _09_
*40 clknet_0_io_in[0]
*41 clknet_1_0__leaf_io_in[0]
*42 clknet_1_1__leaf_io_in[0]
*43 net1
*44 FILLER_0_109
*45 FILLER_0_113
*46 FILLER_0_125
*47 FILLER_0_137
*48 FILLER_0_141
*49 FILLER_0_153
*50 FILLER_0_165
*51 FILLER_0_169
*52 FILLER_0_181
*53 FILLER_0_193
*54 FILLER_0_197
*55 FILLER_0_209
*56 FILLER_0_221
*57 FILLER_0_225
*58 FILLER_0_237
*59 FILLER_0_249
*60 FILLER_0_25
*61 FILLER_0_253
*62 FILLER_0_265
*63 FILLER_0_277
*64 FILLER_0_281
*65 FILLER_0_29
*66 FILLER_0_293
*67 FILLER_0_3
*68 FILLER_0_51
*69 FILLER_0_55
*70 FILLER_0_57
*71 FILLER_0_69
*72 FILLER_0_81
*73 FILLER_0_85
*74 FILLER_0_97
*75 FILLER_10_109
*76 FILLER_10_121
*77 FILLER_10_133
*78 FILLER_10_139
*79 FILLER_10_141
*80 FILLER_10_15
*81 FILLER_10_153
*82 FILLER_10_165
*83 FILLER_10_177
*84 FILLER_10_189
*85 FILLER_10_195
*86 FILLER_10_197
*87 FILLER_10_209
*88 FILLER_10_221
*89 FILLER_10_233
*90 FILLER_10_245
*91 FILLER_10_251
*92 FILLER_10_253
*93 FILLER_10_265
*94 FILLER_10_27
*95 FILLER_10_277
*96 FILLER_10_289
*97 FILLER_10_29
*98 FILLER_10_297
*99 FILLER_10_3
*100 FILLER_10_41
*101 FILLER_10_53
*102 FILLER_10_65
*103 FILLER_10_77
*104 FILLER_10_83
*105 FILLER_10_85
*106 FILLER_10_97
*107 FILLER_11_105
*108 FILLER_11_111
*109 FILLER_11_113
*110 FILLER_11_125
*111 FILLER_11_137
*112 FILLER_11_149
*113 FILLER_11_15
*114 FILLER_11_161
*115 FILLER_11_167
*116 FILLER_11_169
*117 FILLER_11_181
*118 FILLER_11_193
*119 FILLER_11_205
*120 FILLER_11_217
*121 FILLER_11_223
*122 FILLER_11_225
*123 FILLER_11_237
*124 FILLER_11_249
*125 FILLER_11_261
*126 FILLER_11_27
*127 FILLER_11_273
*128 FILLER_11_279
*129 FILLER_11_281
*130 FILLER_11_293
*131 FILLER_11_3
*132 FILLER_11_39
*133 FILLER_11_51
*134 FILLER_11_55
*135 FILLER_11_57
*136 FILLER_11_69
*137 FILLER_11_81
*138 FILLER_11_93
*139 FILLER_12_109
*140 FILLER_12_121
*141 FILLER_12_133
*142 FILLER_12_139
*143 FILLER_12_141
*144 FILLER_12_15
*145 FILLER_12_153
*146 FILLER_12_165
*147 FILLER_12_177
*148 FILLER_12_189
*149 FILLER_12_195
*150 FILLER_12_197
*151 FILLER_12_209
*152 FILLER_12_221
*153 FILLER_12_233
*154 FILLER_12_245
*155 FILLER_12_251
*156 FILLER_12_253
*157 FILLER_12_265
*158 FILLER_12_27
*159 FILLER_12_277
*160 FILLER_12_289
*161 FILLER_12_29
*162 FILLER_12_297
*163 FILLER_12_3
*164 FILLER_12_41
*165 FILLER_12_53
*166 FILLER_12_65
*167 FILLER_12_77
*168 FILLER_12_83
*169 FILLER_12_85
*170 FILLER_12_97
*171 FILLER_13_105
*172 FILLER_13_111
*173 FILLER_13_113
*174 FILLER_13_125
*175 FILLER_13_137
*176 FILLER_13_149
*177 FILLER_13_15
*178 FILLER_13_161
*179 FILLER_13_167
*180 FILLER_13_169
*181 FILLER_13_181
*182 FILLER_13_193
*183 FILLER_13_205
*184 FILLER_13_217
*185 FILLER_13_223
*186 FILLER_13_225
*187 FILLER_13_237
*188 FILLER_13_249
*189 FILLER_13_261
*190 FILLER_13_27
*191 FILLER_13_273
*192 FILLER_13_279
*193 FILLER_13_281
*194 FILLER_13_293
*195 FILLER_13_3
*196 FILLER_13_39
*197 FILLER_13_51
*198 FILLER_13_55
*199 FILLER_13_57
*200 FILLER_13_69
*201 FILLER_13_81
*202 FILLER_13_93
*203 FILLER_14_109
*204 FILLER_14_121
*205 FILLER_14_133
*206 FILLER_14_139
*207 FILLER_14_141
*208 FILLER_14_15
*209 FILLER_14_153
*210 FILLER_14_165
*211 FILLER_14_177
*212 FILLER_14_189
*213 FILLER_14_195
*214 FILLER_14_197
*215 FILLER_14_209
*216 FILLER_14_221
*217 FILLER_14_233
*218 FILLER_14_245
*219 FILLER_14_251
*220 FILLER_14_253
*221 FILLER_14_265
*222 FILLER_14_27
*223 FILLER_14_277
*224 FILLER_14_289
*225 FILLER_14_29
*226 FILLER_14_297
*227 FILLER_14_3
*228 FILLER_14_41
*229 FILLER_14_53
*230 FILLER_14_65
*231 FILLER_14_77
*232 FILLER_14_83
*233 FILLER_14_85
*234 FILLER_14_97
*235 FILLER_15_105
*236 FILLER_15_111
*237 FILLER_15_113
*238 FILLER_15_125
*239 FILLER_15_137
*240 FILLER_15_149
*241 FILLER_15_15
*242 FILLER_15_161
*243 FILLER_15_167
*244 FILLER_15_169
*245 FILLER_15_181
*246 FILLER_15_193
*247 FILLER_15_205
*248 FILLER_15_217
*249 FILLER_15_223
*250 FILLER_15_225
*251 FILLER_15_237
*252 FILLER_15_249
*253 FILLER_15_261
*254 FILLER_15_27
*255 FILLER_15_273
*256 FILLER_15_279
*257 FILLER_15_281
*258 FILLER_15_293
*259 FILLER_15_3
*260 FILLER_15_39
*261 FILLER_15_51
*262 FILLER_15_55
*263 FILLER_15_57
*264 FILLER_15_69
*265 FILLER_15_81
*266 FILLER_15_93
*267 FILLER_16_109
*268 FILLER_16_121
*269 FILLER_16_133
*270 FILLER_16_139
*271 FILLER_16_141
*272 FILLER_16_15
*273 FILLER_16_153
*274 FILLER_16_165
*275 FILLER_16_177
*276 FILLER_16_189
*277 FILLER_16_195
*278 FILLER_16_197
*279 FILLER_16_209
*280 FILLER_16_221
*281 FILLER_16_233
*282 FILLER_16_245
*283 FILLER_16_251
*284 FILLER_16_253
*285 FILLER_16_265
*286 FILLER_16_27
*287 FILLER_16_277
*288 FILLER_16_289
*289 FILLER_16_29
*290 FILLER_16_297
*291 FILLER_16_3
*292 FILLER_16_41
*293 FILLER_16_53
*294 FILLER_16_65
*295 FILLER_16_77
*296 FILLER_16_83
*297 FILLER_16_85
*298 FILLER_16_97
*299 FILLER_17_105
*300 FILLER_17_111
*301 FILLER_17_113
*302 FILLER_17_125
*303 FILLER_17_137
*304 FILLER_17_149
*305 FILLER_17_15
*306 FILLER_17_161
*307 FILLER_17_167
*308 FILLER_17_169
*309 FILLER_17_181
*310 FILLER_17_193
*311 FILLER_17_205
*312 FILLER_17_217
*313 FILLER_17_223
*314 FILLER_17_225
*315 FILLER_17_237
*316 FILLER_17_249
*317 FILLER_17_261
*318 FILLER_17_27
*319 FILLER_17_273
*320 FILLER_17_279
*321 FILLER_17_281
*322 FILLER_17_293
*323 FILLER_17_3
*324 FILLER_17_39
*325 FILLER_17_51
*326 FILLER_17_55
*327 FILLER_17_57
*328 FILLER_17_69
*329 FILLER_17_81
*330 FILLER_17_93
*331 FILLER_18_109
*332 FILLER_18_121
*333 FILLER_18_133
*334 FILLER_18_139
*335 FILLER_18_141
*336 FILLER_18_15
*337 FILLER_18_153
*338 FILLER_18_165
*339 FILLER_18_177
*340 FILLER_18_189
*341 FILLER_18_195
*342 FILLER_18_197
*343 FILLER_18_209
*344 FILLER_18_221
*345 FILLER_18_233
*346 FILLER_18_245
*347 FILLER_18_251
*348 FILLER_18_253
*349 FILLER_18_265
*350 FILLER_18_27
*351 FILLER_18_277
*352 FILLER_18_289
*353 FILLER_18_29
*354 FILLER_18_297
*355 FILLER_18_3
*356 FILLER_18_41
*357 FILLER_18_53
*358 FILLER_18_65
*359 FILLER_18_77
*360 FILLER_18_83
*361 FILLER_18_85
*362 FILLER_18_97
*363 FILLER_19_105
*364 FILLER_19_111
*365 FILLER_19_113
*366 FILLER_19_125
*367 FILLER_19_137
*368 FILLER_19_149
*369 FILLER_19_161
*370 FILLER_19_167
*371 FILLER_19_169
*372 FILLER_19_181
*373 FILLER_19_193
*374 FILLER_19_20
*375 FILLER_19_205
*376 FILLER_19_217
*377 FILLER_19_223
*378 FILLER_19_225
*379 FILLER_19_237
*380 FILLER_19_249
*381 FILLER_19_261
*382 FILLER_19_273
*383 FILLER_19_279
*384 FILLER_19_281
*385 FILLER_19_293
*386 FILLER_19_3
*387 FILLER_19_32
*388 FILLER_19_44
*389 FILLER_19_57
*390 FILLER_19_69
*391 FILLER_19_8
*392 FILLER_19_81
*393 FILLER_19_93
*394 FILLER_1_105
*395 FILLER_1_111
*396 FILLER_1_113
*397 FILLER_1_125
*398 FILLER_1_137
*399 FILLER_1_149
*400 FILLER_1_161
*401 FILLER_1_167
*402 FILLER_1_169
*403 FILLER_1_181
*404 FILLER_1_193
*405 FILLER_1_205
*406 FILLER_1_217
*407 FILLER_1_223
*408 FILLER_1_225
*409 FILLER_1_237
*410 FILLER_1_249
*411 FILLER_1_26
*412 FILLER_1_261
*413 FILLER_1_273
*414 FILLER_1_279
*415 FILLER_1_281
*416 FILLER_1_293
*417 FILLER_1_3
*418 FILLER_1_38
*419 FILLER_1_50
*420 FILLER_1_57
*421 FILLER_1_69
*422 FILLER_1_81
*423 FILLER_1_93
*424 FILLER_20_109
*425 FILLER_20_121
*426 FILLER_20_133
*427 FILLER_20_139
*428 FILLER_20_141
*429 FILLER_20_15
*430 FILLER_20_153
*431 FILLER_20_165
*432 FILLER_20_177
*433 FILLER_20_189
*434 FILLER_20_195
*435 FILLER_20_197
*436 FILLER_20_209
*437 FILLER_20_221
*438 FILLER_20_233
*439 FILLER_20_245
*440 FILLER_20_251
*441 FILLER_20_253
*442 FILLER_20_265
*443 FILLER_20_27
*444 FILLER_20_277
*445 FILLER_20_289
*446 FILLER_20_29
*447 FILLER_20_297
*448 FILLER_20_3
*449 FILLER_20_41
*450 FILLER_20_53
*451 FILLER_20_65
*452 FILLER_20_77
*453 FILLER_20_83
*454 FILLER_20_85
*455 FILLER_20_97
*456 FILLER_21_105
*457 FILLER_21_111
*458 FILLER_21_113
*459 FILLER_21_125
*460 FILLER_21_137
*461 FILLER_21_149
*462 FILLER_21_15
*463 FILLER_21_161
*464 FILLER_21_167
*465 FILLER_21_169
*466 FILLER_21_181
*467 FILLER_21_193
*468 FILLER_21_205
*469 FILLER_21_217
*470 FILLER_21_223
*471 FILLER_21_225
*472 FILLER_21_237
*473 FILLER_21_249
*474 FILLER_21_261
*475 FILLER_21_27
*476 FILLER_21_273
*477 FILLER_21_279
*478 FILLER_21_281
*479 FILLER_21_293
*480 FILLER_21_3
*481 FILLER_21_39
*482 FILLER_21_51
*483 FILLER_21_55
*484 FILLER_21_57
*485 FILLER_21_69
*486 FILLER_21_81
*487 FILLER_21_93
*488 FILLER_22_109
*489 FILLER_22_121
*490 FILLER_22_133
*491 FILLER_22_139
*492 FILLER_22_141
*493 FILLER_22_15
*494 FILLER_22_153
*495 FILLER_22_165
*496 FILLER_22_177
*497 FILLER_22_189
*498 FILLER_22_195
*499 FILLER_22_197
*500 FILLER_22_209
*501 FILLER_22_221
*502 FILLER_22_233
*503 FILLER_22_245
*504 FILLER_22_251
*505 FILLER_22_253
*506 FILLER_22_265
*507 FILLER_22_27
*508 FILLER_22_277
*509 FILLER_22_289
*510 FILLER_22_29
*511 FILLER_22_297
*512 FILLER_22_3
*513 FILLER_22_41
*514 FILLER_22_53
*515 FILLER_22_65
*516 FILLER_22_77
*517 FILLER_22_83
*518 FILLER_22_85
*519 FILLER_22_97
*520 FILLER_23_105
*521 FILLER_23_111
*522 FILLER_23_113
*523 FILLER_23_125
*524 FILLER_23_137
*525 FILLER_23_149
*526 FILLER_23_15
*527 FILLER_23_161
*528 FILLER_23_167
*529 FILLER_23_169
*530 FILLER_23_181
*531 FILLER_23_193
*532 FILLER_23_205
*533 FILLER_23_217
*534 FILLER_23_223
*535 FILLER_23_225
*536 FILLER_23_237
*537 FILLER_23_249
*538 FILLER_23_261
*539 FILLER_23_27
*540 FILLER_23_273
*541 FILLER_23_279
*542 FILLER_23_281
*543 FILLER_23_293
*544 FILLER_23_3
*545 FILLER_23_39
*546 FILLER_23_51
*547 FILLER_23_55
*548 FILLER_23_57
*549 FILLER_23_69
*550 FILLER_23_81
*551 FILLER_23_93
*552 FILLER_24_109
*553 FILLER_24_121
*554 FILLER_24_133
*555 FILLER_24_139
*556 FILLER_24_141
*557 FILLER_24_15
*558 FILLER_24_153
*559 FILLER_24_165
*560 FILLER_24_177
*561 FILLER_24_189
*562 FILLER_24_195
*563 FILLER_24_197
*564 FILLER_24_209
*565 FILLER_24_221
*566 FILLER_24_233
*567 FILLER_24_245
*568 FILLER_24_251
*569 FILLER_24_253
*570 FILLER_24_265
*571 FILLER_24_27
*572 FILLER_24_277
*573 FILLER_24_289
*574 FILLER_24_29
*575 FILLER_24_297
*576 FILLER_24_3
*577 FILLER_24_41
*578 FILLER_24_53
*579 FILLER_24_65
*580 FILLER_24_77
*581 FILLER_24_83
*582 FILLER_24_85
*583 FILLER_24_97
*584 FILLER_25_105
*585 FILLER_25_111
*586 FILLER_25_113
*587 FILLER_25_125
*588 FILLER_25_137
*589 FILLER_25_149
*590 FILLER_25_15
*591 FILLER_25_161
*592 FILLER_25_167
*593 FILLER_25_169
*594 FILLER_25_181
*595 FILLER_25_193
*596 FILLER_25_205
*597 FILLER_25_217
*598 FILLER_25_223
*599 FILLER_25_225
*600 FILLER_25_237
*601 FILLER_25_249
*602 FILLER_25_261
*603 FILLER_25_27
*604 FILLER_25_273
*605 FILLER_25_279
*606 FILLER_25_281
*607 FILLER_25_293
*608 FILLER_25_3
*609 FILLER_25_39
*610 FILLER_25_51
*611 FILLER_25_55
*612 FILLER_25_57
*613 FILLER_25_69
*614 FILLER_25_81
*615 FILLER_25_93
*616 FILLER_26_109
*617 FILLER_26_121
*618 FILLER_26_133
*619 FILLER_26_139
*620 FILLER_26_141
*621 FILLER_26_15
*622 FILLER_26_153
*623 FILLER_26_165
*624 FILLER_26_177
*625 FILLER_26_189
*626 FILLER_26_195
*627 FILLER_26_197
*628 FILLER_26_209
*629 FILLER_26_221
*630 FILLER_26_233
*631 FILLER_26_245
*632 FILLER_26_251
*633 FILLER_26_253
*634 FILLER_26_265
*635 FILLER_26_27
*636 FILLER_26_277
*637 FILLER_26_289
*638 FILLER_26_29
*639 FILLER_26_297
*640 FILLER_26_3
*641 FILLER_26_41
*642 FILLER_26_53
*643 FILLER_26_65
*644 FILLER_26_77
*645 FILLER_26_83
*646 FILLER_26_85
*647 FILLER_26_97
*648 FILLER_27_105
*649 FILLER_27_111
*650 FILLER_27_113
*651 FILLER_27_125
*652 FILLER_27_137
*653 FILLER_27_149
*654 FILLER_27_161
*655 FILLER_27_167
*656 FILLER_27_169
*657 FILLER_27_181
*658 FILLER_27_193
*659 FILLER_27_205
*660 FILLER_27_21
*661 FILLER_27_217
*662 FILLER_27_223
*663 FILLER_27_225
*664 FILLER_27_237
*665 FILLER_27_249
*666 FILLER_27_261
*667 FILLER_27_273
*668 FILLER_27_279
*669 FILLER_27_281
*670 FILLER_27_293
*671 FILLER_27_3
*672 FILLER_27_33
*673 FILLER_27_45
*674 FILLER_27_53
*675 FILLER_27_57
*676 FILLER_27_69
*677 FILLER_27_81
*678 FILLER_27_93
*679 FILLER_28_10
*680 FILLER_28_109
*681 FILLER_28_121
*682 FILLER_28_133
*683 FILLER_28_139
*684 FILLER_28_141
*685 FILLER_28_153
*686 FILLER_28_165
*687 FILLER_28_177
*688 FILLER_28_189
*689 FILLER_28_195
*690 FILLER_28_197
*691 FILLER_28_209
*692 FILLER_28_22
*693 FILLER_28_221
*694 FILLER_28_233
*695 FILLER_28_245
*696 FILLER_28_251
*697 FILLER_28_253
*698 FILLER_28_265
*699 FILLER_28_277
*700 FILLER_28_289
*701 FILLER_28_29
*702 FILLER_28_297
*703 FILLER_28_3
*704 FILLER_28_41
*705 FILLER_28_53
*706 FILLER_28_65
*707 FILLER_28_77
*708 FILLER_28_83
*709 FILLER_28_85
*710 FILLER_28_97
*711 FILLER_29_105
*712 FILLER_29_111
*713 FILLER_29_113
*714 FILLER_29_125
*715 FILLER_29_137
*716 FILLER_29_149
*717 FILLER_29_15
*718 FILLER_29_161
*719 FILLER_29_167
*720 FILLER_29_169
*721 FILLER_29_181
*722 FILLER_29_193
*723 FILLER_29_205
*724 FILLER_29_217
*725 FILLER_29_223
*726 FILLER_29_225
*727 FILLER_29_237
*728 FILLER_29_249
*729 FILLER_29_261
*730 FILLER_29_27
*731 FILLER_29_273
*732 FILLER_29_279
*733 FILLER_29_281
*734 FILLER_29_293
*735 FILLER_29_3
*736 FILLER_29_39
*737 FILLER_29_51
*738 FILLER_29_55
*739 FILLER_29_57
*740 FILLER_29_69
*741 FILLER_29_81
*742 FILLER_29_93
*743 FILLER_2_109
*744 FILLER_2_121
*745 FILLER_2_133
*746 FILLER_2_139
*747 FILLER_2_141
*748 FILLER_2_153
*749 FILLER_2_165
*750 FILLER_2_177
*751 FILLER_2_189
*752 FILLER_2_195
*753 FILLER_2_197
*754 FILLER_2_209
*755 FILLER_2_221
*756 FILLER_2_233
*757 FILLER_2_245
*758 FILLER_2_251
*759 FILLER_2_253
*760 FILLER_2_26
*761 FILLER_2_265
*762 FILLER_2_277
*763 FILLER_2_289
*764 FILLER_2_29
*765 FILLER_2_297
*766 FILLER_2_3
*767 FILLER_2_41
*768 FILLER_2_53
*769 FILLER_2_65
*770 FILLER_2_77
*771 FILLER_2_83
*772 FILLER_2_85
*773 FILLER_2_97
*774 FILLER_30_109
*775 FILLER_30_121
*776 FILLER_30_133
*777 FILLER_30_139
*778 FILLER_30_141
*779 FILLER_30_15
*780 FILLER_30_153
*781 FILLER_30_165
*782 FILLER_30_177
*783 FILLER_30_189
*784 FILLER_30_195
*785 FILLER_30_197
*786 FILLER_30_209
*787 FILLER_30_221
*788 FILLER_30_233
*789 FILLER_30_245
*790 FILLER_30_251
*791 FILLER_30_253
*792 FILLER_30_265
*793 FILLER_30_27
*794 FILLER_30_277
*795 FILLER_30_289
*796 FILLER_30_29
*797 FILLER_30_297
*798 FILLER_30_3
*799 FILLER_30_37
*800 FILLER_30_43
*801 FILLER_30_55
*802 FILLER_30_67
*803 FILLER_30_79
*804 FILLER_30_83
*805 FILLER_30_85
*806 FILLER_30_97
*807 FILLER_31_105
*808 FILLER_31_111
*809 FILLER_31_113
*810 FILLER_31_125
*811 FILLER_31_137
*812 FILLER_31_149
*813 FILLER_31_15
*814 FILLER_31_161
*815 FILLER_31_167
*816 FILLER_31_169
*817 FILLER_31_181
*818 FILLER_31_193
*819 FILLER_31_20
*820 FILLER_31_205
*821 FILLER_31_217
*822 FILLER_31_223
*823 FILLER_31_225
*824 FILLER_31_237
*825 FILLER_31_249
*826 FILLER_31_261
*827 FILLER_31_273
*828 FILLER_31_279
*829 FILLER_31_281
*830 FILLER_31_29
*831 FILLER_31_293
*832 FILLER_31_3
*833 FILLER_31_41
*834 FILLER_31_53
*835 FILLER_31_57
*836 FILLER_31_69
*837 FILLER_31_81
*838 FILLER_31_93
*839 FILLER_32_109
*840 FILLER_32_121
*841 FILLER_32_133
*842 FILLER_32_139
*843 FILLER_32_141
*844 FILLER_32_153
*845 FILLER_32_165
*846 FILLER_32_177
*847 FILLER_32_189
*848 FILLER_32_195
*849 FILLER_32_197
*850 FILLER_32_20
*851 FILLER_32_209
*852 FILLER_32_221
*853 FILLER_32_233
*854 FILLER_32_245
*855 FILLER_32_251
*856 FILLER_32_253
*857 FILLER_32_265
*858 FILLER_32_277
*859 FILLER_32_289
*860 FILLER_32_29
*861 FILLER_32_297
*862 FILLER_32_3
*863 FILLER_32_41
*864 FILLER_32_53
*865 FILLER_32_65
*866 FILLER_32_77
*867 FILLER_32_8
*868 FILLER_32_83
*869 FILLER_32_85
*870 FILLER_32_97
*871 FILLER_33_105
*872 FILLER_33_111
*873 FILLER_33_113
*874 FILLER_33_125
*875 FILLER_33_137
*876 FILLER_33_149
*877 FILLER_33_161
*878 FILLER_33_167
*879 FILLER_33_169
*880 FILLER_33_181
*881 FILLER_33_193
*882 FILLER_33_205
*883 FILLER_33_21
*884 FILLER_33_217
*885 FILLER_33_223
*886 FILLER_33_225
*887 FILLER_33_237
*888 FILLER_33_249
*889 FILLER_33_261
*890 FILLER_33_273
*891 FILLER_33_279
*892 FILLER_33_281
*893 FILLER_33_293
*894 FILLER_33_3
*895 FILLER_33_33
*896 FILLER_33_45
*897 FILLER_33_53
*898 FILLER_33_57
*899 FILLER_33_69
*900 FILLER_33_81
*901 FILLER_33_9
*902 FILLER_33_93
*903 FILLER_34_10
*904 FILLER_34_109
*905 FILLER_34_121
*906 FILLER_34_133
*907 FILLER_34_139
*908 FILLER_34_141
*909 FILLER_34_153
*910 FILLER_34_165
*911 FILLER_34_177
*912 FILLER_34_189
*913 FILLER_34_195
*914 FILLER_34_197
*915 FILLER_34_209
*916 FILLER_34_22
*917 FILLER_34_221
*918 FILLER_34_233
*919 FILLER_34_245
*920 FILLER_34_251
*921 FILLER_34_253
*922 FILLER_34_265
*923 FILLER_34_277
*924 FILLER_34_289
*925 FILLER_34_29
*926 FILLER_34_297
*927 FILLER_34_3
*928 FILLER_34_41
*929 FILLER_34_53
*930 FILLER_34_65
*931 FILLER_34_77
*932 FILLER_34_83
*933 FILLER_34_85
*934 FILLER_34_97
*935 FILLER_35_105
*936 FILLER_35_111
*937 FILLER_35_113
*938 FILLER_35_125
*939 FILLER_35_137
*940 FILLER_35_149
*941 FILLER_35_161
*942 FILLER_35_167
*943 FILLER_35_169
*944 FILLER_35_181
*945 FILLER_35_193
*946 FILLER_35_20
*947 FILLER_35_205
*948 FILLER_35_217
*949 FILLER_35_223
*950 FILLER_35_225
*951 FILLER_35_237
*952 FILLER_35_249
*953 FILLER_35_261
*954 FILLER_35_273
*955 FILLER_35_279
*956 FILLER_35_281
*957 FILLER_35_293
*958 FILLER_35_3
*959 FILLER_35_32
*960 FILLER_35_44
*961 FILLER_35_57
*962 FILLER_35_69
*963 FILLER_35_8
*964 FILLER_35_81
*965 FILLER_35_93
*966 FILLER_36_109
*967 FILLER_36_11
*968 FILLER_36_121
*969 FILLER_36_133
*970 FILLER_36_139
*971 FILLER_36_141
*972 FILLER_36_153
*973 FILLER_36_165
*974 FILLER_36_177
*975 FILLER_36_189
*976 FILLER_36_195
*977 FILLER_36_197
*978 FILLER_36_209
*979 FILLER_36_221
*980 FILLER_36_23
*981 FILLER_36_233
*982 FILLER_36_245
*983 FILLER_36_251
*984 FILLER_36_253
*985 FILLER_36_265
*986 FILLER_36_27
*987 FILLER_36_277
*988 FILLER_36_289
*989 FILLER_36_29
*990 FILLER_36_297
*991 FILLER_36_3
*992 FILLER_36_41
*993 FILLER_36_53
*994 FILLER_36_65
*995 FILLER_36_77
*996 FILLER_36_83
*997 FILLER_36_85
*998 FILLER_36_97
*999 FILLER_37_105
*1000 FILLER_37_111
*1001 FILLER_37_113
*1002 FILLER_37_125
*1003 FILLER_37_137
*1004 FILLER_37_149
*1005 FILLER_37_15
*1006 FILLER_37_161
*1007 FILLER_37_167
*1008 FILLER_37_169
*1009 FILLER_37_181
*1010 FILLER_37_193
*1011 FILLER_37_205
*1012 FILLER_37_217
*1013 FILLER_37_223
*1014 FILLER_37_225
*1015 FILLER_37_237
*1016 FILLER_37_249
*1017 FILLER_37_26
*1018 FILLER_37_261
*1019 FILLER_37_273
*1020 FILLER_37_279
*1021 FILLER_37_281
*1022 FILLER_37_293
*1023 FILLER_37_3
*1024 FILLER_37_38
*1025 FILLER_37_50
*1026 FILLER_37_57
*1027 FILLER_37_69
*1028 FILLER_37_81
*1029 FILLER_37_93
*1030 FILLER_38_109
*1031 FILLER_38_11
*1032 FILLER_38_121
*1033 FILLER_38_133
*1034 FILLER_38_139
*1035 FILLER_38_141
*1036 FILLER_38_153
*1037 FILLER_38_165
*1038 FILLER_38_177
*1039 FILLER_38_18
*1040 FILLER_38_189
*1041 FILLER_38_195
*1042 FILLER_38_197
*1043 FILLER_38_209
*1044 FILLER_38_221
*1045 FILLER_38_233
*1046 FILLER_38_245
*1047 FILLER_38_251
*1048 FILLER_38_253
*1049 FILLER_38_26
*1050 FILLER_38_265
*1051 FILLER_38_277
*1052 FILLER_38_289
*1053 FILLER_38_29
*1054 FILLER_38_297
*1055 FILLER_38_3
*1056 FILLER_38_41
*1057 FILLER_38_53
*1058 FILLER_38_65
*1059 FILLER_38_77
*1060 FILLER_38_83
*1061 FILLER_38_85
*1062 FILLER_38_97
*1063 FILLER_39_105
*1064 FILLER_39_111
*1065 FILLER_39_113
*1066 FILLER_39_125
*1067 FILLER_39_137
*1068 FILLER_39_149
*1069 FILLER_39_15
*1070 FILLER_39_161
*1071 FILLER_39_167
*1072 FILLER_39_169
*1073 FILLER_39_181
*1074 FILLER_39_193
*1075 FILLER_39_205
*1076 FILLER_39_217
*1077 FILLER_39_223
*1078 FILLER_39_225
*1079 FILLER_39_237
*1080 FILLER_39_249
*1081 FILLER_39_261
*1082 FILLER_39_27
*1083 FILLER_39_273
*1084 FILLER_39_279
*1085 FILLER_39_281
*1086 FILLER_39_293
*1087 FILLER_39_3
*1088 FILLER_39_39
*1089 FILLER_39_51
*1090 FILLER_39_55
*1091 FILLER_39_57
*1092 FILLER_39_69
*1093 FILLER_39_81
*1094 FILLER_39_93
*1095 FILLER_3_105
*1096 FILLER_3_111
*1097 FILLER_3_113
*1098 FILLER_3_125
*1099 FILLER_3_137
*1100 FILLER_3_149
*1101 FILLER_3_161
*1102 FILLER_3_167
*1103 FILLER_3_169
*1104 FILLER_3_181
*1105 FILLER_3_193
*1106 FILLER_3_205
*1107 FILLER_3_217
*1108 FILLER_3_223
*1109 FILLER_3_225
*1110 FILLER_3_237
*1111 FILLER_3_249
*1112 FILLER_3_26
*1113 FILLER_3_261
*1114 FILLER_3_273
*1115 FILLER_3_279
*1116 FILLER_3_281
*1117 FILLER_3_293
*1118 FILLER_3_3
*1119 FILLER_3_38
*1120 FILLER_3_50
*1121 FILLER_3_57
*1122 FILLER_3_69
*1123 FILLER_3_81
*1124 FILLER_3_93
*1125 FILLER_40_109
*1126 FILLER_40_121
*1127 FILLER_40_133
*1128 FILLER_40_139
*1129 FILLER_40_141
*1130 FILLER_40_15
*1131 FILLER_40_153
*1132 FILLER_40_165
*1133 FILLER_40_177
*1134 FILLER_40_189
*1135 FILLER_40_195
*1136 FILLER_40_197
*1137 FILLER_40_209
*1138 FILLER_40_221
*1139 FILLER_40_233
*1140 FILLER_40_245
*1141 FILLER_40_251
*1142 FILLER_40_253
*1143 FILLER_40_265
*1144 FILLER_40_27
*1145 FILLER_40_277
*1146 FILLER_40_289
*1147 FILLER_40_29
*1148 FILLER_40_297
*1149 FILLER_40_3
*1150 FILLER_40_41
*1151 FILLER_40_53
*1152 FILLER_40_65
*1153 FILLER_40_77
*1154 FILLER_40_83
*1155 FILLER_40_85
*1156 FILLER_40_97
*1157 FILLER_41_105
*1158 FILLER_41_111
*1159 FILLER_41_113
*1160 FILLER_41_125
*1161 FILLER_41_137
*1162 FILLER_41_149
*1163 FILLER_41_15
*1164 FILLER_41_161
*1165 FILLER_41_167
*1166 FILLER_41_169
*1167 FILLER_41_181
*1168 FILLER_41_193
*1169 FILLER_41_205
*1170 FILLER_41_217
*1171 FILLER_41_223
*1172 FILLER_41_225
*1173 FILLER_41_237
*1174 FILLER_41_249
*1175 FILLER_41_261
*1176 FILLER_41_27
*1177 FILLER_41_273
*1178 FILLER_41_279
*1179 FILLER_41_281
*1180 FILLER_41_293
*1181 FILLER_41_3
*1182 FILLER_41_39
*1183 FILLER_41_51
*1184 FILLER_41_55
*1185 FILLER_41_57
*1186 FILLER_41_69
*1187 FILLER_41_81
*1188 FILLER_41_93
*1189 FILLER_42_109
*1190 FILLER_42_121
*1191 FILLER_42_133
*1192 FILLER_42_139
*1193 FILLER_42_14
*1194 FILLER_42_141
*1195 FILLER_42_153
*1196 FILLER_42_165
*1197 FILLER_42_177
*1198 FILLER_42_189
*1199 FILLER_42_195
*1200 FILLER_42_197
*1201 FILLER_42_209
*1202 FILLER_42_221
*1203 FILLER_42_233
*1204 FILLER_42_245
*1205 FILLER_42_251
*1206 FILLER_42_253
*1207 FILLER_42_26
*1208 FILLER_42_265
*1209 FILLER_42_277
*1210 FILLER_42_289
*1211 FILLER_42_29
*1212 FILLER_42_297
*1213 FILLER_42_3
*1214 FILLER_42_41
*1215 FILLER_42_53
*1216 FILLER_42_65
*1217 FILLER_42_77
*1218 FILLER_42_83
*1219 FILLER_42_85
*1220 FILLER_42_97
*1221 FILLER_43_105
*1222 FILLER_43_111
*1223 FILLER_43_113
*1224 FILLER_43_12
*1225 FILLER_43_125
*1226 FILLER_43_137
*1227 FILLER_43_149
*1228 FILLER_43_161
*1229 FILLER_43_167
*1230 FILLER_43_169
*1231 FILLER_43_181
*1232 FILLER_43_193
*1233 FILLER_43_205
*1234 FILLER_43_217
*1235 FILLER_43_223
*1236 FILLER_43_225
*1237 FILLER_43_237
*1238 FILLER_43_24
*1239 FILLER_43_249
*1240 FILLER_43_261
*1241 FILLER_43_273
*1242 FILLER_43_279
*1243 FILLER_43_281
*1244 FILLER_43_293
*1245 FILLER_43_3
*1246 FILLER_43_36
*1247 FILLER_43_48
*1248 FILLER_43_57
*1249 FILLER_43_69
*1250 FILLER_43_7
*1251 FILLER_43_81
*1252 FILLER_43_93
*1253 FILLER_44_109
*1254 FILLER_44_11
*1255 FILLER_44_121
*1256 FILLER_44_133
*1257 FILLER_44_139
*1258 FILLER_44_141
*1259 FILLER_44_153
*1260 FILLER_44_165
*1261 FILLER_44_177
*1262 FILLER_44_189
*1263 FILLER_44_195
*1264 FILLER_44_197
*1265 FILLER_44_209
*1266 FILLER_44_221
*1267 FILLER_44_23
*1268 FILLER_44_233
*1269 FILLER_44_245
*1270 FILLER_44_251
*1271 FILLER_44_253
*1272 FILLER_44_265
*1273 FILLER_44_27
*1274 FILLER_44_277
*1275 FILLER_44_289
*1276 FILLER_44_29
*1277 FILLER_44_297
*1278 FILLER_44_3
*1279 FILLER_44_41
*1280 FILLER_44_53
*1281 FILLER_44_65
*1282 FILLER_44_77
*1283 FILLER_44_83
*1284 FILLER_44_85
*1285 FILLER_44_97
*1286 FILLER_45_105
*1287 FILLER_45_111
*1288 FILLER_45_113
*1289 FILLER_45_125
*1290 FILLER_45_137
*1291 FILLER_45_149
*1292 FILLER_45_15
*1293 FILLER_45_161
*1294 FILLER_45_167
*1295 FILLER_45_169
*1296 FILLER_45_181
*1297 FILLER_45_193
*1298 FILLER_45_205
*1299 FILLER_45_217
*1300 FILLER_45_223
*1301 FILLER_45_225
*1302 FILLER_45_237
*1303 FILLER_45_249
*1304 FILLER_45_261
*1305 FILLER_45_27
*1306 FILLER_45_273
*1307 FILLER_45_279
*1308 FILLER_45_281
*1309 FILLER_45_293
*1310 FILLER_45_3
*1311 FILLER_45_39
*1312 FILLER_45_51
*1313 FILLER_45_55
*1314 FILLER_45_57
*1315 FILLER_45_69
*1316 FILLER_45_81
*1317 FILLER_45_93
*1318 FILLER_46_109
*1319 FILLER_46_121
*1320 FILLER_46_133
*1321 FILLER_46_139
*1322 FILLER_46_141
*1323 FILLER_46_15
*1324 FILLER_46_153
*1325 FILLER_46_165
*1326 FILLER_46_177
*1327 FILLER_46_189
*1328 FILLER_46_195
*1329 FILLER_46_197
*1330 FILLER_46_209
*1331 FILLER_46_221
*1332 FILLER_46_233
*1333 FILLER_46_245
*1334 FILLER_46_251
*1335 FILLER_46_253
*1336 FILLER_46_265
*1337 FILLER_46_27
*1338 FILLER_46_277
*1339 FILLER_46_289
*1340 FILLER_46_29
*1341 FILLER_46_297
*1342 FILLER_46_3
*1343 FILLER_46_41
*1344 FILLER_46_53
*1345 FILLER_46_65
*1346 FILLER_46_77
*1347 FILLER_46_83
*1348 FILLER_46_85
*1349 FILLER_46_97
*1350 FILLER_47_105
*1351 FILLER_47_111
*1352 FILLER_47_113
*1353 FILLER_47_125
*1354 FILLER_47_137
*1355 FILLER_47_149
*1356 FILLER_47_161
*1357 FILLER_47_167
*1358 FILLER_47_169
*1359 FILLER_47_181
*1360 FILLER_47_193
*1361 FILLER_47_205
*1362 FILLER_47_21
*1363 FILLER_47_217
*1364 FILLER_47_223
*1365 FILLER_47_225
*1366 FILLER_47_237
*1367 FILLER_47_249
*1368 FILLER_47_261
*1369 FILLER_47_273
*1370 FILLER_47_279
*1371 FILLER_47_281
*1372 FILLER_47_293
*1373 FILLER_47_3
*1374 FILLER_47_33
*1375 FILLER_47_45
*1376 FILLER_47_53
*1377 FILLER_47_57
*1378 FILLER_47_69
*1379 FILLER_47_81
*1380 FILLER_47_9
*1381 FILLER_47_93
*1382 FILLER_48_109
*1383 FILLER_48_121
*1384 FILLER_48_133
*1385 FILLER_48_139
*1386 FILLER_48_141
*1387 FILLER_48_15
*1388 FILLER_48_153
*1389 FILLER_48_165
*1390 FILLER_48_177
*1391 FILLER_48_189
*1392 FILLER_48_195
*1393 FILLER_48_197
*1394 FILLER_48_209
*1395 FILLER_48_221
*1396 FILLER_48_233
*1397 FILLER_48_245
*1398 FILLER_48_251
*1399 FILLER_48_253
*1400 FILLER_48_265
*1401 FILLER_48_27
*1402 FILLER_48_277
*1403 FILLER_48_289
*1404 FILLER_48_29
*1405 FILLER_48_297
*1406 FILLER_48_3
*1407 FILLER_48_41
*1408 FILLER_48_53
*1409 FILLER_48_65
*1410 FILLER_48_77
*1411 FILLER_48_83
*1412 FILLER_48_85
*1413 FILLER_48_97
*1414 FILLER_49_105
*1415 FILLER_49_111
*1416 FILLER_49_113
*1417 FILLER_49_125
*1418 FILLER_49_137
*1419 FILLER_49_149
*1420 FILLER_49_15
*1421 FILLER_49_161
*1422 FILLER_49_167
*1423 FILLER_49_169
*1424 FILLER_49_181
*1425 FILLER_49_193
*1426 FILLER_49_205
*1427 FILLER_49_217
*1428 FILLER_49_223
*1429 FILLER_49_225
*1430 FILLER_49_237
*1431 FILLER_49_249
*1432 FILLER_49_261
*1433 FILLER_49_27
*1434 FILLER_49_273
*1435 FILLER_49_279
*1436 FILLER_49_281
*1437 FILLER_49_293
*1438 FILLER_49_3
*1439 FILLER_49_39
*1440 FILLER_49_51
*1441 FILLER_49_55
*1442 FILLER_49_57
*1443 FILLER_49_69
*1444 FILLER_49_81
*1445 FILLER_49_93
*1446 FILLER_4_109
*1447 FILLER_4_121
*1448 FILLER_4_133
*1449 FILLER_4_139
*1450 FILLER_4_141
*1451 FILLER_4_153
*1452 FILLER_4_165
*1453 FILLER_4_177
*1454 FILLER_4_189
*1455 FILLER_4_195
*1456 FILLER_4_197
*1457 FILLER_4_209
*1458 FILLER_4_221
*1459 FILLER_4_233
*1460 FILLER_4_245
*1461 FILLER_4_251
*1462 FILLER_4_253
*1463 FILLER_4_26
*1464 FILLER_4_265
*1465 FILLER_4_277
*1466 FILLER_4_289
*1467 FILLER_4_29
*1468 FILLER_4_297
*1469 FILLER_4_3
*1470 FILLER_4_41
*1471 FILLER_4_53
*1472 FILLER_4_65
*1473 FILLER_4_77
*1474 FILLER_4_83
*1475 FILLER_4_85
*1476 FILLER_4_97
*1477 FILLER_50_109
*1478 FILLER_50_121
*1479 FILLER_50_133
*1480 FILLER_50_139
*1481 FILLER_50_141
*1482 FILLER_50_15
*1483 FILLER_50_153
*1484 FILLER_50_165
*1485 FILLER_50_177
*1486 FILLER_50_189
*1487 FILLER_50_195
*1488 FILLER_50_197
*1489 FILLER_50_209
*1490 FILLER_50_221
*1491 FILLER_50_233
*1492 FILLER_50_245
*1493 FILLER_50_251
*1494 FILLER_50_253
*1495 FILLER_50_265
*1496 FILLER_50_27
*1497 FILLER_50_277
*1498 FILLER_50_289
*1499 FILLER_50_29
*1500 FILLER_50_297
*1501 FILLER_50_3
*1502 FILLER_50_41
*1503 FILLER_50_53
*1504 FILLER_50_65
*1505 FILLER_50_77
*1506 FILLER_50_83
*1507 FILLER_50_85
*1508 FILLER_50_97
*1509 FILLER_51_105
*1510 FILLER_51_111
*1511 FILLER_51_113
*1512 FILLER_51_125
*1513 FILLER_51_137
*1514 FILLER_51_149
*1515 FILLER_51_15
*1516 FILLER_51_161
*1517 FILLER_51_167
*1518 FILLER_51_169
*1519 FILLER_51_181
*1520 FILLER_51_193
*1521 FILLER_51_205
*1522 FILLER_51_217
*1523 FILLER_51_223
*1524 FILLER_51_225
*1525 FILLER_51_237
*1526 FILLER_51_249
*1527 FILLER_51_261
*1528 FILLER_51_27
*1529 FILLER_51_273
*1530 FILLER_51_279
*1531 FILLER_51_281
*1532 FILLER_51_293
*1533 FILLER_51_3
*1534 FILLER_51_39
*1535 FILLER_51_51
*1536 FILLER_51_55
*1537 FILLER_51_57
*1538 FILLER_51_69
*1539 FILLER_51_81
*1540 FILLER_51_93
*1541 FILLER_52_109
*1542 FILLER_52_121
*1543 FILLER_52_133
*1544 FILLER_52_139
*1545 FILLER_52_141
*1546 FILLER_52_15
*1547 FILLER_52_153
*1548 FILLER_52_165
*1549 FILLER_52_177
*1550 FILLER_52_189
*1551 FILLER_52_195
*1552 FILLER_52_197
*1553 FILLER_52_209
*1554 FILLER_52_221
*1555 FILLER_52_233
*1556 FILLER_52_245
*1557 FILLER_52_251
*1558 FILLER_52_253
*1559 FILLER_52_265
*1560 FILLER_52_27
*1561 FILLER_52_277
*1562 FILLER_52_289
*1563 FILLER_52_29
*1564 FILLER_52_297
*1565 FILLER_52_3
*1566 FILLER_52_41
*1567 FILLER_52_53
*1568 FILLER_52_65
*1569 FILLER_52_77
*1570 FILLER_52_83
*1571 FILLER_52_85
*1572 FILLER_52_97
*1573 FILLER_53_105
*1574 FILLER_53_111
*1575 FILLER_53_113
*1576 FILLER_53_125
*1577 FILLER_53_137
*1578 FILLER_53_149