*SPEF "ieee 1481-1999"
*DESIGN "loxodes_sequencer"
*DATE "11:11:11 Fri 11 11, 1111"
*VENDOR "OpenRCX"
*PROGRAM "Parallel Extraction"
*VERSION "1.0"
*DESIGN_FLOW "NAME_SCOPE LOCAL" "PIN_CAP NONE"
*DIVIDER /
*DELIMITER :
*BUS_DELIMITER []
*T_UNIT 1 NS
*C_UNIT 1 PF
*R_UNIT 1 OHM
*L_UNIT 1 HENRY

*NAME_MAP
*1 io_in[0]
*2 io_in[1]
*3 io_in[2]
*4 io_in[3]
*5 io_in[4]
*6 io_in[5]
*7 io_in[6]
*8 io_in[7]
*9 io_out[0]
*10 io_out[1]
*11 io_out[2]
*12 io_out[3]
*13 io_out[4]
*14 io_out[5]
*15 io_out[6]
*16 io_out[7]
*19 _000_
*20 _001_
*21 _002_
*22 _003_
*23 _004_
*24 _005_
*25 _006_
*26 _007_
*27 _008_
*28 _009_
*29 _010_
*30 _011_
*31 _012_
*32 _013_
*33 _014_
*34 _015_
*35 _016_
*36 _017_
*37 _018_
*38 _019_
*39 _020_
*40 _021_
*41 _022_
*42 _023_
*43 _024_
*44 _025_
*45 _026_
*46 _027_
*47 _028_
*48 _029_
*49 _030_
*50 _031_
*51 _032_
*52 _033_
*53 _034_
*54 _035_
*55 _036_
*56 _037_
*57 _038_
*58 _039_
*59 _040_
*60 _041_
*61 _042_
*62 _043_
*63 _044_
*64 _045_
*65 _046_
*66 _047_
*67 _048_
*68 _049_
*69 _050_
*70 _051_
*71 _052_
*72 _053_
*73 _054_
*74 _055_
*75 _056_
*76 _057_
*77 _058_
*78 _059_
*79 _060_
*80 _061_
*81 _062_
*82 _063_
*83 _064_
*84 _065_
*85 _066_
*86 _067_
*87 _068_
*88 _069_
*89 _070_
*90 _071_
*91 _072_
*92 _073_
*93 _074_
*94 _075_
*95 _076_
*96 _077_
*97 _078_
*98 _079_
*99 _080_
*100 _081_
*101 _082_
*102 _083_
*103 _084_
*104 _085_
*105 _086_
*106 _087_
*107 _088_
*108 _089_
*109 _090_
*110 _091_
*111 _092_
*112 _093_
*113 _094_
*114 _095_
*115 _096_
*116 _097_
*117 _098_
*118 _099_
*119 _100_
*120 _101_
*121 _102_
*122 _103_
*123 _104_
*124 _105_
*125 _106_
*126 _107_
*127 _108_
*128 _109_
*129 _110_
*130 _111_
*131 _112_
*132 _113_
*133 _114_
*134 _115_
*135 _116_
*136 _117_
*137 _118_
*138 _119_
*139 _120_
*140 _121_
*141 channel_index\[0\]
*142 channel_index\[1\]
*143 channel_index\[2\]
*144 channel_index\[3\]
*145 clknet_0_io_in[0]
*146 clknet_1_0__leaf_io_in[0]
*147 clknet_1_1__leaf_io_in[0]
*148 counter\[0\]
*149 counter\[1\]
*150 counter\[2\]
*151 counter\[3\]
*152 counter\[4\]
*153 net1
*154 net2
*155 net3
*156 net4
*157 net5
*158 net6
*159 net7
*160 ANTENNA_1
*161 ANTENNA_2
*162 FILLER_0_109
*163 FILLER_0_113
*164 FILLER_0_125
*165 FILLER_0_137
*166 FILLER_0_141
*167 FILLER_0_153
*168 FILLER_0_165
*169 FILLER_0_169
*170 FILLER_0_181
*171 FILLER_0_193
*172 FILLER_0_197
*173 FILLER_0_209
*174 FILLER_0_221
*175 FILLER_0_225
*176 FILLER_0_237
*177 FILLER_0_249
*178 FILLER_0_253
*179 FILLER_0_26
*180 FILLER_0_265
*181 FILLER_0_277
*182 FILLER_0_281
*183 FILLER_0_29
*184 FILLER_0_293
*185 FILLER_0_3
*186 FILLER_0_52
*187 FILLER_0_57
*188 FILLER_0_79
*189 FILLER_0_83
*190 FILLER_0_85
*191 FILLER_0_97
*192 FILLER_10_109
*193 FILLER_10_116
*194 FILLER_10_124
*195 FILLER_10_129
*196 FILLER_10_137
*197 FILLER_10_141
*198 FILLER_10_153
*199 FILLER_10_165
*200 FILLER_10_177
*201 FILLER_10_189
*202 FILLER_10_195
*203 FILLER_10_197
*204 FILLER_10_209
*205 FILLER_10_21
*206 FILLER_10_221
*207 FILLER_10_233
*208 FILLER_10_245
*209 FILLER_10_251
*210 FILLER_10_253
*211 FILLER_10_265
*212 FILLER_10_27
*213 FILLER_10_277
*214 FILLER_10_289
*215 FILLER_10_29
*216 FILLER_10_297
*217 FILLER_10_3
*218 FILLER_10_41
*219 FILLER_10_53
*220 FILLER_10_65
*221 FILLER_10_77
*222 FILLER_10_83
*223 FILLER_10_85
*224 FILLER_10_9
*225 FILLER_10_97
*226 FILLER_11_101
*227 FILLER_11_110
*228 FILLER_11_113
*229 FILLER_11_117
*230 FILLER_11_124
*231 FILLER_11_136
*232 FILLER_11_148
*233 FILLER_11_15
*234 FILLER_11_160
*235 FILLER_11_169
*236 FILLER_11_181
*237 FILLER_11_193
*238 FILLER_11_205
*239 FILLER_11_217
*240 FILLER_11_223
*241 FILLER_11_225
*242 FILLER_11_237
*243 FILLER_11_249
*244 FILLER_11_261
*245 FILLER_11_27
*246 FILLER_11_273
*247 FILLER_11_279
*248 FILLER_11_281
*249 FILLER_11_293
*250 FILLER_11_3
*251 FILLER_11_39
*252 FILLER_11_51
*253 FILLER_11_55
*254 FILLER_11_57
*255 FILLER_11_69
*256 FILLER_11_81
*257 FILLER_11_93
*258 FILLER_12_106
*259 FILLER_12_118
*260 FILLER_12_130
*261 FILLER_12_138
*262 FILLER_12_141
*263 FILLER_12_153
*264 FILLER_12_161
*265 FILLER_12_167
*266 FILLER_12_179
*267 FILLER_12_191
*268 FILLER_12_195
*269 FILLER_12_197
*270 FILLER_12_20
*271 FILLER_12_209
*272 FILLER_12_221
*273 FILLER_12_233
*274 FILLER_12_245
*275 FILLER_12_251
*276 FILLER_12_253
*277 FILLER_12_265
*278 FILLER_12_277
*279 FILLER_12_289
*280 FILLER_12_29
*281 FILLER_12_297
*282 FILLER_12_3
*283 FILLER_12_38
*284 FILLER_12_50
*285 FILLER_12_62
*286 FILLER_12_74
*287 FILLER_12_8
*288 FILLER_12_82
*289 FILLER_12_85
*290 FILLER_12_94
*291 FILLER_13_10
*292 FILLER_13_102
*293 FILLER_13_110
*294 FILLER_13_113
*295 FILLER_13_125
*296 FILLER_13_137
*297 FILLER_13_146
*298 FILLER_13_158
*299 FILLER_13_166
*300 FILLER_13_169
*301 FILLER_13_181
*302 FILLER_13_193
*303 FILLER_13_205
*304 FILLER_13_217
*305 FILLER_13_22
*306 FILLER_13_223
*307 FILLER_13_225
*308 FILLER_13_237
*309 FILLER_13_249
*310 FILLER_13_261
*311 FILLER_13_273
*312 FILLER_13_279
*313 FILLER_13_281
*314 FILLER_13_293
*315 FILLER_13_3
*316 FILLER_13_34
*317 FILLER_13_47
*318 FILLER_13_55
*319 FILLER_13_57
*320 FILLER_13_66
*321 FILLER_13_78
*322 FILLER_13_90
*323 FILLER_14_109
*324 FILLER_14_121
*325 FILLER_14_133
*326 FILLER_14_139
*327 FILLER_14_14
*328 FILLER_14_141
*329 FILLER_14_153
*330 FILLER_14_165
*331 FILLER_14_177
*332 FILLER_14_189
*333 FILLER_14_195
*334 FILLER_14_197
*335 FILLER_14_209
*336 FILLER_14_221
*337 FILLER_14_233
*338 FILLER_14_245
*339 FILLER_14_251
*340 FILLER_14_253
*341 FILLER_14_26
*342 FILLER_14_265
*343 FILLER_14_277
*344 FILLER_14_289
*345 FILLER_14_29
*346 FILLER_14_297
*347 FILLER_14_3
*348 FILLER_14_41
*349 FILLER_14_48
*350 FILLER_14_60
*351 FILLER_14_69
*352 FILLER_14_77
*353 FILLER_14_83
*354 FILLER_14_85
*355 FILLER_14_97
*356 FILLER_15_102
*357 FILLER_15_110
*358 FILLER_15_113
*359 FILLER_15_125
*360 FILLER_15_131
*361 FILLER_15_135
*362 FILLER_15_147
*363 FILLER_15_159
*364 FILLER_15_16
*365 FILLER_15_167
*366 FILLER_15_169
*367 FILLER_15_181
*368 FILLER_15_193
*369 FILLER_15_205
*370 FILLER_15_217
*371 FILLER_15_223
*372 FILLER_15_225
*373 FILLER_15_237
*374 FILLER_15_249
*375 FILLER_15_261
*376 FILLER_15_273
*377 FILLER_15_279
*378 FILLER_15_281
*379 FILLER_15_29
*380 FILLER_15_293
*381 FILLER_15_3
*382 FILLER_15_44
*383 FILLER_15_57
*384 FILLER_15_61
*385 FILLER_15_65
*386 FILLER_15_77
*387 FILLER_15_85
*388 FILLER_15_9
*389 FILLER_15_95
*390 FILLER_16_109
*391 FILLER_16_11
*392 FILLER_16_121
*393 FILLER_16_133
*394 FILLER_16_139
*395 FILLER_16_141
*396 FILLER_16_153
*397 FILLER_16_165
*398 FILLER_16_17
*399 FILLER_16_177
*400 FILLER_16_189
*401 FILLER_16_195
*402 FILLER_16_197
*403 FILLER_16_209
*404 FILLER_16_221
*405 FILLER_16_23
*406 FILLER_16_233
*407 FILLER_16_245
*408 FILLER_16_251
*409 FILLER_16_253
*410 FILLER_16_265
*411 FILLER_16_27
*412 FILLER_16_277
*413 FILLER_16_289
*414 FILLER_16_29
*415 FILLER_16_297
*416 FILLER_16_3
*417 FILLER_16_41
*418 FILLER_16_56
*419 FILLER_16_64
*420 FILLER_16_70
*421 FILLER_16_82
*422 FILLER_16_85
*423 FILLER_16_97
*424 FILLER_17_104
*425 FILLER_17_113
*426 FILLER_17_125
*427 FILLER_17_137
*428 FILLER_17_149
*429 FILLER_17_155
*430 FILLER_17_162
*431 FILLER_17_169
*432 FILLER_17_181
*433 FILLER_17_193
*434 FILLER_17_20
*435 FILLER_17_205
*436 FILLER_17_217
*437 FILLER_17_223
*438 FILLER_17_225
*439 FILLER_17_237
*440 FILLER_17_249
*441 FILLER_17_261
*442 FILLER_17_273
*443 FILLER_17_279
*444 FILLER_17_281
*445 FILLER_17_293
*446 FILLER_17_3
*447 FILLER_17_32
*448 FILLER_17_44
*449 FILLER_17_57
*450 FILLER_17_69
*451 FILLER_17_79
*452 FILLER_17_8
*453 FILLER_17_92
*454 FILLER_18_109
*455 FILLER_18_121
*456 FILLER_18_133
*457 FILLER_18_139
*458 FILLER_18_141
*459 FILLER_18_15
*460 FILLER_18_153
*461 FILLER_18_165
*462 FILLER_18_177
*463 FILLER_18_189
*464 FILLER_18_195
*465 FILLER_18_197
*466 FILLER_18_209
*467 FILLER_18_221
*468 FILLER_18_233
*469 FILLER_18_24
*470 FILLER_18_245
*471 FILLER_18_251
*472 FILLER_18_253
*473 FILLER_18_265
*474 FILLER_18_277
*475 FILLER_18_289
*476 FILLER_18_29
*477 FILLER_18_297
*478 FILLER_18_3
*479 FILLER_18_41
*480 FILLER_18_53
*481 FILLER_18_65
*482 FILLER_18_73
*483 FILLER_18_82
*484 FILLER_18_85
*485 FILLER_18_97
*486 FILLER_19_105
*487 FILLER_19_111
*488 FILLER_19_113
*489 FILLER_19_125
*490 FILLER_19_13
*491 FILLER_19_137
*492 FILLER_19_149
*493 FILLER_19_161
*494 FILLER_19_167
*495 FILLER_19_169
*496 FILLER_19_181
*497 FILLER_19_193
*498 FILLER_19_205
*499 FILLER_19_217
*500 FILLER_19_223
*501 FILLER_19_225
*502 FILLER_19_237
*503 FILLER_19_249
*504 FILLER_19_25
*505 FILLER_19_261
*506 FILLER_19_273
*507 FILLER_19_279
*508 FILLER_19_281
*509 FILLER_19_293
*510 FILLER_19_3
*511 FILLER_19_37
*512 FILLER_19_53
*513 FILLER_19_57
*514 FILLER_19_69
*515 FILLER_19_81
*516 FILLER_19_93
*517 FILLER_1_101
*518 FILLER_1_110
*519 FILLER_1_113
*520 FILLER_1_122
*521 FILLER_1_135
*522 FILLER_1_151
*523 FILLER_1_163
*524 FILLER_1_167
*525 FILLER_1_169
*526 FILLER_1_17
*527 FILLER_1_181
*528 FILLER_1_185
*529 FILLER_1_189
*530 FILLER_1_201
*531 FILLER_1_213
*532 FILLER_1_221
*533 FILLER_1_225
*534 FILLER_1_237
*535 FILLER_1_249
*536 FILLER_1_261
*537 FILLER_1_273
*538 FILLER_1_279
*539 FILLER_1_281
*540 FILLER_1_293
*541 FILLER_1_3
*542 FILLER_1_39
*543 FILLER_1_51
*544 FILLER_1_55
*545 FILLER_1_57
*546 FILLER_1_69
*547 FILLER_1_81
*548 FILLER_1_89
*549 FILLER_1_9
*550 FILLER_1_93
*551 FILLER_20_109
*552 FILLER_20_121
*553 FILLER_20_129
*554 FILLER_20_138
*555 FILLER_20_141
*556 FILLER_20_153
*557 FILLER_20_165
*558 FILLER_20_177
*559 FILLER_20_189
*560 FILLER_20_195
*561 FILLER_20_197
*562 FILLER_20_20
*563 FILLER_20_209
*564 FILLER_20_221
*565 FILLER_20_233
*566 FILLER_20_245
*567 FILLER_20_251
*568 FILLER_20_253
*569 FILLER_20_265
*570 FILLER_20_277
*571 FILLER_20_289
*572 FILLER_20_29
*573 FILLER_20_297
*574 FILLER_20_3
*575 FILLER_20_41
*576 FILLER_20_53
*577 FILLER_20_59
*578 FILLER_20_70
*579 FILLER_20_8
*580 FILLER_20_82
*581 FILLER_20_85
*582 FILLER_20_97
*583 FILLER_21_105
*584 FILLER_21_111
*585 FILLER_21_113
*586 FILLER_21_12
*587 FILLER_21_125
*588 FILLER_21_135
*589 FILLER_21_147
*590 FILLER_21_159
*591 FILLER_21_167
*592 FILLER_21_169
*593 FILLER_21_181
*594 FILLER_21_193
*595 FILLER_21_20
*596 FILLER_21_205
*597 FILLER_21_217
*598 FILLER_21_223
*599 FILLER_21_225
*600 FILLER_21_237
*601 FILLER_21_249
*602 FILLER_21_261
*603 FILLER_21_273
*604 FILLER_21_279
*605 FILLER_21_281
*606 FILLER_21_293
*607 FILLER_21_3
*608 FILLER_21_32
*609 FILLER_21_39
*610 FILLER_21_51
*611 FILLER_21_55
*612 FILLER_21_57
*613 FILLER_21_69
*614 FILLER_21_8
*615 FILLER_21_81
*616 FILLER_21_93
*617 FILLER_22_107
*618 FILLER_22_119
*619 FILLER_22_12
*620 FILLER_22_132
*621 FILLER_22_141
*622 FILLER_22_153
*623 FILLER_22_165
*624 FILLER_22_177
*625 FILLER_22_189
*626 FILLER_22_195
*627 FILLER_22_197
*628 FILLER_22_209
*629 FILLER_22_221
*630 FILLER_22_233
*631 FILLER_22_24
*632 FILLER_22_245
*633 FILLER_22_251
*634 FILLER_22_253
*635 FILLER_22_265
*636 FILLER_22_277
*637 FILLER_22_289
*638 FILLER_22_29
*639 FILLER_22_297
*640 FILLER_22_3
*641 FILLER_22_37
*642 FILLER_22_44
*643 FILLER_22_48
*644 FILLER_22_57
*645 FILLER_22_76
*646 FILLER_22_85
*647 FILLER_22_95
*648 FILLER_23_100
*649 FILLER_23_113
*650 FILLER_23_125
*651 FILLER_23_137
*652 FILLER_23_149
*653 FILLER_23_15
*654 FILLER_23_161
*655 FILLER_23_167
*656 FILLER_23_169
*657 FILLER_23_181
*658 FILLER_23_193
*659 FILLER_23_205
*660 FILLER_23_217
*661 FILLER_23_223
*662 FILLER_23_225
*663 FILLER_23_237
*664 FILLER_23_249
*665 FILLER_23_261
*666 FILLER_23_27
*667 FILLER_23_273
*668 FILLER_23_279
*669 FILLER_23_281
*670 FILLER_23_293
*671 FILLER_23_3
*672 FILLER_23_39
*673 FILLER_23_51
*674 FILLER_23_55
*675 FILLER_23_57
*676 FILLER_23_64
*677 FILLER_23_76
*678 FILLER_23_88
*679 FILLER_24_109
*680 FILLER_24_121
*681 FILLER_24_133
*682 FILLER_24_139
*683 FILLER_24_141
*684 FILLER_24_153
*685 FILLER_24_165
*686 FILLER_24_177
*687 FILLER_24_189
*688 FILLER_24_195
*689 FILLER_24_197
*690 FILLER_24_20
*691 FILLER_24_209
*692 FILLER_24_221
*693 FILLER_24_233
*694 FILLER_24_245
*695 FILLER_24_25
*696 FILLER_24_251
*697 FILLER_24_253
*698 FILLER_24_265
*699 FILLER_24_277
*700 FILLER_24_289
*701 FILLER_24_29
*702 FILLER_24_297
*703 FILLER_24_3
*704 FILLER_24_37
*705 FILLER_24_44
*706 FILLER_24_56
*707 FILLER_24_68
*708 FILLER_24_74
*709 FILLER_24_78
*710 FILLER_24_8
*711 FILLER_24_85
*712 FILLER_24_97
*713 FILLER_25_104
*714 FILLER_25_113
*715 FILLER_25_125
*716 FILLER_25_137
*717 FILLER_25_149
*718 FILLER_25_15
*719 FILLER_25_161
*720 FILLER_25_167
*721 FILLER_25_169
*722 FILLER_25_181
*723 FILLER_25_193
*724 FILLER_25_205
*725 FILLER_25_217
*726 FILLER_25_223
*727 FILLER_25_225
*728 FILLER_25_237
*729 FILLER_25_249
*730 FILLER_25_261
*731 FILLER_25_27
*732 FILLER_25_273
*733 FILLER_25_279
*734 FILLER_25_281
*735 FILLER_25_289
*736 FILLER_25_295
*737 FILLER_25_3
*738 FILLER_25_38
*739 FILLER_25_50
*740 FILLER_25_57
*741 FILLER_25_68
*742 FILLER_25_80
*743 FILLER_25_92
*744 FILLER_26_109
*745 FILLER_26_121
*746 FILLER_26_133
*747 FILLER_26_139
*748 FILLER_26_141
*749 FILLER_26_15
*750 FILLER_26_153
*751 FILLER_26_165
*752 FILLER_26_177
*753 FILLER_26_189
*754 FILLER_26_195
*755 FILLER_26_197
*756 FILLER_26_209
*757 FILLER_26_221
*758 FILLER_26_233
*759 FILLER_26_245
*760 FILLER_26_251
*761 FILLER_26_253
*762 FILLER_26_265
*763 FILLER_26_27
*764 FILLER_26_277
*765 FILLER_26_289
*766 FILLER_26_29
*767 FILLER_26_297
*768 FILLER_26_3
*769 FILLER_26_37
*770 FILLER_26_52
*771 FILLER_26_64
*772 FILLER_26_73
*773 FILLER_26_81
*774 FILLER_26_85
*775 FILLER_26_97
*776 FILLER_27_108
*777 FILLER_27_113
*778 FILLER_27_125
*779 FILLER_27_137
*780 FILLER_27_149
*781 FILLER_27_161
*782 FILLER_27_167
*783 FILLER_27_169
*784 FILLER_27_181
*785 FILLER_27_193
*786 FILLER_27_20
*787 FILLER_27_205
*788 FILLER_27_217
*789 FILLER_27_223
*790 FILLER_27_225
*791 FILLER_27_237
*792 FILLER_27_249
*793 FILLER_27_261
*794 FILLER_27_273
*795 FILLER_27_279
*796 FILLER_27_281
*797 FILLER_27_293
*798 FILLER_27_3
*799 FILLER_27_32
*800 FILLER_27_44
*801 FILLER_27_57
*802 FILLER_27_65
*803 FILLER_27_72
*804 FILLER_27_8
*805 FILLER_27_84
*806 FILLER_27_96
*807 FILLER_28_100
*808 FILLER_28_112
*809 FILLER_28_124
*810 FILLER_28_136
*811 FILLER_28_141
*812 FILLER_28_15
*813 FILLER_28_153
*814 FILLER_28_165
*815 FILLER_28_177
*816 FILLER_28_189
*817 FILLER_28_195
*818 FILLER_28_197
*819 FILLER_28_209
*820 FILLER_28_221
*821 FILLER_28_233
*822 FILLER_28_245
*823 FILLER_28_251
*824 FILLER_28_253
*825 FILLER_28_26
*826 FILLER_28_265
*827 FILLER_28_277
*828 FILLER_28_289
*829 FILLER_28_29
*830 FILLER_28_297
*831 FILLER_28_3
*832 FILLER_28_38
*833 FILLER_28_50
*834 FILLER_28_62
*835 FILLER_28_74
*836 FILLER_28_82
*837 FILLER_28_85
*838 FILLER_29_105
*839 FILLER_29_111
*840 FILLER_29_113
*841 FILLER_29_12
*842 FILLER_29_122
*843 FILLER_29_134
*844 FILLER_29_146
*845 FILLER_29_158
*846 FILLER_29_166
*847 FILLER_29_169
*848 FILLER_29_181
*849 FILLER_29_193
*850 FILLER_29_205
*851 FILLER_29_217
*852 FILLER_29_223
*853 FILLER_29_225
*854 FILLER_29_237
*855 FILLER_29_24
*856 FILLER_29_249
*857 FILLER_29_261
*858 FILLER_29_273
*859 FILLER_29_279
*860 FILLER_29_281
*861 FILLER_29_293
*862 FILLER_29_3
*863 FILLER_29_36
*864 FILLER_29_44
*865 FILLER_29_57
*866 FILLER_29_69
*867 FILLER_29_81
*868 FILLER_29_93
*869 FILLER_2_109
*870 FILLER_2_121
*871 FILLER_2_133
*872 FILLER_2_139
*873 FILLER_2_141
*874 FILLER_2_153
*875 FILLER_2_165
*876 FILLER_2_177
*877 FILLER_2_189
*878 FILLER_2_195
*879 FILLER_2_197
*880 FILLER_2_209
*881 FILLER_2_221
*882 FILLER_2_233
*883 FILLER_2_24
*884 FILLER_2_245
*885 FILLER_2_251
*886 FILLER_2_253
*887 FILLER_2_265
*888 FILLER_2_277
*889 FILLER_2_289
*890 FILLER_2_29
*891 FILLER_2_297
*892 FILLER_2_3
*893 FILLER_2_50
*894 FILLER_2_70
*895 FILLER_2_77
*896 FILLER_2_83
*897 FILLER_2_85
*898 FILLER_2_89
*899 FILLER_2_95
*900 FILLER_30_109
*901 FILLER_30_121
*902 FILLER_30_133
*903 FILLER_30_139
*904 FILLER_30_141
*905 FILLER_30_15
*906 FILLER_30_153
*907 FILLER_30_165
*908 FILLER_30_180
*909 FILLER_30_192
*910 FILLER_30_197
*911 FILLER_30_209
*912 FILLER_30_221
*913 FILLER_30_233
*914 FILLER_30_245
*915 FILLER_30_251
*916 FILLER_30_253
*917 FILLER_30_265
*918 FILLER_30_27
*919 FILLER_30_277
*920 FILLER_30_289
*921 FILLER_30_29
*922 FILLER_30_297
*923 FILLER_30_3
*924 FILLER_30_37
*925 FILLER_30_42
*926 FILLER_30_54
*927 FILLER_30_66
*928 FILLER_30_78
*929 FILLER_30_85
*930 FILLER_30_97
*931 FILLER_31_105
*932 FILLER_31_111
*933 FILLER_31_113
*934 FILLER_31_120
*935 FILLER_31_128
*936 FILLER_31_14
*937 FILLER_31_140
*938 FILLER_31_152
*939 FILLER_31_164
*940 FILLER_31_169
*941 FILLER_31_18
*942 FILLER_31_181
*943 FILLER_31_193
*944 FILLER_31_205
*945 FILLER_31_217
*946 FILLER_31_223
*947 FILLER_31_225
*948 FILLER_31_23
*949 FILLER_31_237
*950 FILLER_31_249
*951 FILLER_31_261
*952 FILLER_31_273
*953 FILLER_31_279
*954 FILLER_31_281
*955 FILLER_31_293
*956 FILLER_31_3
*957 FILLER_31_35
*958 FILLER_31_47
*959 FILLER_31_55
*960 FILLER_31_57
*961 FILLER_31_69
*962 FILLER_31_81
*963 FILLER_31_93
*964 FILLER_32_109
*965 FILLER_32_121
*966 FILLER_32_133
*967 FILLER_32_139
*968 FILLER_32_141
*969 FILLER_32_15
*970 FILLER_32_153
*971 FILLER_32_165
*972 FILLER_32_177
*973 FILLER_32_189
*974 FILLER_32_195
*975 FILLER_32_197
*976 FILLER_32_209
*977 FILLER_32_21
*978 FILLER_32_221
*979 FILLER_32_233
*980 FILLER_32_245
*981 FILLER_32_251
*982 FILLER_32_253
*983 FILLER_32_26
*984 FILLER_32_265
*985 FILLER_32_277
*986 FILLER_32_289
*987 FILLER_32_29
*988 FILLER_32_297
*989 FILLER_32_3
*990 FILLER_32_38
*991 FILLER_32_53
*992 FILLER_32_65
*993 FILLER_32_73
*994 FILLER_32_82
*995 FILLER_32_85
*996 FILLER_32_97
*997 FILLER_33_109
*998 FILLER_33_11
*999 FILLER_33_113
*1000 FILLER_33_125
*1001 FILLER_33_137
*1002 FILLER_33_149
*1003 FILLER_33_161
*1004 FILLER_33_167
*1005 FILLER_33_169
*1006 FILLER_33_181
*1007 FILLER_33_193
*1008 FILLER_33_205
*1009 FILLER_33_217
*1010 FILLER_33_223
*1011 FILLER_33_225
*1012 FILLER_33_23
*1013 FILLER_33_237
*1014 FILLER_33_249
*1015 FILLER_33_261
*1016 FILLER_33_273
*1017 FILLER_33_279
*1018 FILLER_33_281
*1019 FILLER_33_293
*1020 FILLER_33_3
*1021 FILLER_33_35
*1022 FILLER_33_47
*1023 FILLER_33_55
*1024 FILLER_33_57
*1025 FILLER_33_69
*1026 FILLER_33_81
*1027 FILLER_33_89
*1028 FILLER_33_97
*1029 FILLER_34_109
*1030 FILLER_34_121
*1031 FILLER_34_133
*1032 FILLER_34_139
*1033 FILLER_34_141
*1034 FILLER_34_15
*1035 FILLER_34_153
*1036 FILLER_34_165
*1037 FILLER_34_177
*1038 FILLER_34_189
*1039 FILLER_34_195
*1040 FILLER_34_197
*1041 FILLER_34_209
*1042 FILLER_34_221
*1043 FILLER_34_233
*1044 FILLER_34_245
*1045 FILLER_34_251
*1046 FILLER_34_253
*1047 FILLER_34_265
*1048 FILLER_34_27
*1049 FILLER_34_277
*1050 FILLER_34_289
*1051 FILLER_34_29
*1052 FILLER_34_297
*1053 FILLER_34_3
*1054 FILLER_34_41
*1055 FILLER_34_53
*1056 FILLER_34_65
*1057 FILLER_34_77
*1058 FILLER_34_83
*1059 FILLER_34_85
*1060 FILLER_34_97
*1061 FILLER_35_105
*1062 FILLER_35_111
*1063 FILLER_35_113
*1064 FILLER_35_125
*1065 FILLER_35_137
*1066 FILLER_35_149
*1067 FILLER_35_15
*1068 FILLER_35_161
*1069 FILLER_35_167
*1070 FILLER_35_169
*1071 FILLER_35_181
*1072 FILLER_35_193
*1073 FILLER_35_205
*1074 FILLER_35_217
*1075 FILLER_35_223
*1076 FILLER_35_225
*1077 FILLER_35_237
*1078 FILLER_35_249
*1079 FILLER_35_261
*1080 FILLER_35_27
*1081 FILLER_35_273
*1082 FILLER_35_279
*1083 FILLER_35_281
*1084 FILLER_35_293
*1085 FILLER_35_3
*1086 FILLER_35_39
*1087 FILLER_35_51
*1088 FILLER_35_55
*1089 FILLER_35_57
*1090 FILLER_35_69
*1091 FILLER_35_81
*1092 FILLER_35_93
*1093 FILLER_36_107
*1094 FILLER_36_119
*1095 FILLER_36_131
*1096 FILLER_36_139
*1097 FILLER_36_141
*1098 FILLER_36_15
*1099 FILLER_36_153
*1100 FILLER_36_165
*1101 FILLER_36_177
*1102 FILLER_36_189
*1103 FILLER_36_195
*1104 FILLER_36_197
*1105 FILLER_36_209
*1106 FILLER_36_221
*1107 FILLER_36_233
*1108 FILLER_36_245
*1109 FILLER_36_251
*1110 FILLER_36_253
*1111 FILLER_36_265
*1112 FILLER_36_27
*1113 FILLER_36_277
*1114 FILLER_36_289
*1115 FILLER_36_29
*1116 FILLER_36_297
*1117 FILLER_36_3
*1118 FILLER_36_41
*1119 FILLER_36_53
*1120 FILLER_36_65
*1121 FILLER_36_77
*1122 FILLER_36_83
*1123 FILLER_36_85
*1124 FILLER_36_95
*1125 FILLER_37_110
*1126 FILLER_37_113
*1127 FILLER_37_12
*1128 FILLER_37_125
*1129 FILLER_37_137
*1130 FILLER_37_149
*1131 FILLER_37_161
*1132 FILLER_37_167
*1133 FILLER_37_169
*1134 FILLER_37_181
*1135 FILLER_37_193
*1136 FILLER_37_205
*1137 FILLER_37_217
*1138 FILLER_37_223
*1139 FILLER_37_225
*1140 FILLER_37_237
*1141 FILLER_37_24
*1142 FILLER_37_249
*1143 FILLER_37_261
*1144 FILLER_37_273
*1145 FILLER_37_279
*1146 FILLER_37_281
*1147 FILLER_37_293
*1148 FILLER_37_3
*1149 FILLER_37_36
*1150 FILLER_37_48
*1151 FILLER_37_57
*1152 FILLER_37_74
*1153 FILLER_37_86
*1154 FILLER_37_98
*1155 FILLER_38_109
*1156 FILLER_38_121
*1157 FILLER_38_133
*1158 FILLER_38_139
*1159 FILLER_38_141
*1160 FILLER_38_15
*1161 FILLER_38_153
*1162 FILLER_38_165
*1163 FILLER_38_177
*1164 FILLER_38_189
*1165 FILLER_38_195
*1166 FILLER_38_197
*1167 FILLER_38_209
*1168 FILLER_38_221
*1169 FILLER_38_233
*1170 FILLER_38_245
*1171 FILLER_38_251
*1172 FILLER_38_253
*1173 FILLER_38_265
*1174 FILLER_38_27
*1175 FILLER_38_277
*1176 FILLER_38_289
*1177 FILLER_38_29
*1178 FILLER_38_297
*1179 FILLER_38_3
*1180 FILLER_38_35
*1181 FILLER_38_47
*1182 FILLER_38_59
*1183 FILLER_38_71
*1184 FILLER_38_83
*1185 FILLER_38_85
*1186 FILLER_38_97
*1187 FILLER_39_105
*1188 FILLER_39_111
*1189 FILLER_39_113
*1190 FILLER_39_125
*1191 FILLER_39_137
*1192 FILLER_39_149
*1193 FILLER_39_15
*1194 FILLER_39_161
*1195 FILLER_39_167
*1196 FILLER_39_169
*1197 FILLER_39_181
*1198 FILLER_39_193
*1199 FILLER_39_205
*1200 FILLER_39_217
*1201 FILLER_39_223
*1202 FILLER_39_225
*1203 FILLER_39_237
*1204 FILLER_39_249
*1205 FILLER_39_261
*1206 FILLER_39_27
*1207 FILLER_39_273
*1208 FILLER_39_279
*1209 FILLER_39_281
*1210 FILLER_39_293
*1211 FILLER_39_3
*1212 FILLER_39_39
*1213 FILLER_39_47
*1214 FILLER_39_54
*1215 FILLER_39_57
*1216 FILLER_39_69
*1217 FILLER_39_81
*1218 FILLER_39_93
*1219 FILLER_3_101
*1220 FILLER_3_109
*1221 FILLER_3_113
*1222 FILLER_3_117
*1223 FILLER_3_121
*1224 FILLER_3_133
*1225 FILLER_3_145
*1226 FILLER_3_157
*1227 FILLER_3_165
*1228 FILLER_3_169
*1229 FILLER_3_181
*1230 FILLER_3_193
*1231 FILLER_3_205
*1232 FILLER_3_217
*1233 FILLER_3_223
*1234 FILLER_3_225
*1235 FILLER_3_237
*1236 FILLER_3_249
*1237 FILLER_3_25
*1238 FILLER_3_261
*1239 FILLER_3_273
*1240 FILLER_3_279
*1241 FILLER_3_281
*1242 FILLER_3_293
*1243 FILLER_3_3
*1244 FILLER_3_48
*1245 FILLER_3_57
*1246 FILLER_3_75
*1247 FILLER_3_87
*1248 FILLER_3_95
*1249 FILLER_40_109
*1250 FILLER_40_121
*1251 FILLER_40_133
*1252 FILLER_40_139
*1253 FILLER_40_141
*1254 FILLER_40_15
*1255 FILLER_40_153
*1256 FILLER_40_165
*1257 FILLER_40_177
*1258 FILLER_40_189
*1259 FILLER_40_195
*1260 FILLER_40_197
*1261 FILLER_40_209
*1262 FILLER_40_221
*1263 FILLER_40_233
*1264 FILLER_40_245
*1265 FILLER_40_251
*1266 FILLER_40_253
*1267 FILLER_40_265
*1268 FILLER_40_27
*1269 FILLER_40_277
*1270 FILLER_40_289
*1271 FILLER_40_29
*1272 FILLER_40_297
*1273 FILLER_40_3
*1274 FILLER_40_38
*1275 FILLER_40_50
*1276 FILLER_40_62
*1277 FILLER_40_74
*1278 FILLER_40_82
*1279 FILLER_40_85
*1280 FILLER_40_97
*1281 FILLER_41_106
*1282 FILLER_41_113
*1283 FILLER_41_125
*1284 FILLER_41_137
*1285 FILLER_41_149
*1286 FILLER_41_15
*1287 FILLER_41_161
*1288 FILLER_41_167
*1289 FILLER_41_169
*1290 FILLER_41_181
*1291 FILLER_41_193
*1292 FILLER_41_205
*1293 FILLER_41_217
*1294 FILLER_41_223
*1295 FILLER_41_225
*1296 FILLER_41_237
*1297 FILLER_41_249
*1298 FILLER_41_261
*1299 FILLER_41_27
*1300 FILLER_41_273
*1301 FILLER_41_279
*1302 FILLER_41_281
*1303 FILLER_41_293
*1304 FILLER_41_3
*1305 FILLER_41_39
*1306 FILLER_41_51
*1307 FILLER_41_55
*1308 FILLER_41_57
*1309 FILLER_41_70
*1310 FILLER_41_82
*1311 FILLER_41_94
*1312 FILLER_42_109
*1313 FILLER_42_121
*1314 FILLER_42_133
*1315 FILLER_42_139
*1316 FILLER_42_141
*1317 FILLER_42_15
*1318 FILLER_42_153
*1319 FILLER_42_165
*1320 FILLER_42_177
*1321 FILLER_42_189
*1322 FILLER_42_195
*1323 FILLER_42_197
*1324 FILLER_42_209
*1325 FILLER_42_221
*1326 FILLER_42_233
*1327 FILLER_42_245
*1328 FILLER_42_251
*1329 FILLER_42_253
*1330 FILLER_42_265
*1331 FILLER_42_27
*1332 FILLER_42_277
*1333 FILLER_42_289
*1334 FILLER_42_29
*1335 FILLER_42_297
*1336 FILLER_42_3
*1337 FILLER_42_41
*1338 FILLER_42_53
*1339 FILLER_42_65
*1340 FILLER_42_72
*1341 FILLER_42_85
*1342 FILLER_42_97
*1343 FILLER_43_105
*1344 FILLER_43_111
*1345 FILLER_43_113
*1346 FILLER_43_125
*1347 FILLER_43_137
*1348 FILLER_43_149
*1349 FILLER_43_15
*1350 FILLER_43_161
*1351 FILLER_43_167
*1352 FILLER_43_169
*1353 FILLER_43_181
*1354 FILLER_43_193
*1355 FILLER_43_205
*1356 FILLER_43_217
*1357 FILLER_43_223
*1358 FILLER_43_225
*1359 FILLER_43_237
*1360 FILLER_43_249
*1361 FILLER_43_261
*1362 FILLER_43_27
*1363 FILLER_43_273
*1364 FILLER_43_279
*1365 FILLER_43_281
*1366 FILLER_43_293
*1367 FILLER_43_3
*1368 FILLER_43_39
*1369 FILLER_43_51
*1370 FILLER_43_55
*1371 FILLER_43_57
*1372 FILLER_43_69
*1373 FILLER_43_81
*1374 FILLER_43_93
*1375 FILLER_44_109
*1376 FILLER_44_121
*1377 FILLER_44_133
*1378 FILLER_44_139
*1379 FILLER_44_141
*1380 FILLER_44_15
*1381 FILLER_44_153
*1382 FILLER_44_165
*1383 FILLER_44_177
*1384 FILLER_44_189
*1385 FILLER_44_195
*1386 FILLER_44_197
*1387 FILLER_44_209
*1388 FILLER_44_221
*1389 FILLER_44_233
*1390 FILLER_44_245
*1391 FILLER_44_251
*1392 FILLER_44_253
*1393 FILLER_44_265
*1394 FILLER_44_27
*1395 FILLER_44_277
*1396 FILLER_44_289
*1397 FILLER_44_29
*1398 FILLER_44_297
*1399 FILLER_44_3
*1400 FILLER_44_41
*1401 FILLER_44_53
*1402 FILLER_44_65
*1403 FILLER_44_77
*1404 FILLER_44_83
*1405 FILLER_44_85
*1406 FILLER_44_97
*1407 FILLER_45_105
*1408 FILLER_45_111
*1409 FILLER_45_113
*1410 FILLER_45_125
*1411 FILLER_45_137
*1412 FILLER_45_149
*1413 FILLER_45_15
*1414 FILLER_45_161
*1415 FILLER_45_167
*1416 FILLER_45_169
*1417 FILLER_45_181
*1418 FILLER_45_193
*1419 FILLER_45_205
*1420 FILLER_45_217
*1421 FILLER_45_223
*1422 FILLER_45_225
*1423 FILLER_45_237
*1424 FILLER_45_249
*1425 FILLER_45_261
*1426 FILLER_45_27
*1427 FILLER_45_273
*1428 FILLER_45_279
*1429 FILLER_45_281
*1430 FILLER_45_293
*1431 FILLER_45_3
*1432 FILLER_45_39
*1433 FILLER_45_51
*1434 FILLER_45_55
*1435 FILLER_45_57
*1436 FILLER_45_69
*1437 FILLER_45_81
*1438 FILLER_45_93
*1439 FILLER_46_109
*1440 FILLER_46_121
*1441 FILLER_46_133
*1442 FILLER_46_139
*1443 FILLER_46_141
*1444 FILLER_46_15
*1445 FILLER_46_153
*1446 FILLER_46_165
*1447 FILLER_46_177
*1448 FILLER_46_189
*1449 FILLER_46_195
*1450 FILLER_46_197
*1451 FILLER_46_209
*1452 FILLER_46_221
*1453 FILLER_46_233
*1454 FILLER_46_245
*1455 FILLER_46_251
*1456 FILLER_46_253
*1457 FILLER_46_265
*1458 FILLER_46_27
*1459 FILLER_46_277
*1460 FILLER_46_289
*1461 FILLER_46_29
*1462 FILLER_46_297
*1463 FILLER_46_3
*1464 FILLER_46_41
*1465 FILLER_46_53
*1466 FILLER_46_65
*1467 FILLER_46_77
*1468 FILLER_46_83
*1469 FILLER_46_85
*1470 FILLER_46_97
*1471 FILLER_47_105
*1472 FILLER_47_111
*1473 FILLER_47_113
*1474 FILLER_47_125
*1475 FILLER_47_137
*1476 FILLER_47_149
*1477 FILLER_47_15
*1478 FILLER_47_161
*1479 FILLER_47_167
*1480 FILLER_47_169
*1481 FILLER_47_181
*1482 FILLER_47_193
*1483 FILLER_47_205
*1484 FILLER_47_217
*1485 FILLER_47_223
*1486 FILLER_47_225
*1487 FILLER_47_237
*1488 FILLER_47_249
*1489 FILLER_47_261
*1490 FILLER_47_27
*1491 FILLER_47_273
*1492 FILLER_47_279
*1493 FILLER_47_281
*1494 FILLER_47_293
*1495 FILLER_47_3
*1496 FILLER_47_39
*1497 FILLER_47_51
*1498 FILLER_47_55
*1499 FILLER_47_57
*1500 FILLER_47_69
*1501 FILLER_47_81
*1502 FILLER_47_93
*1503 FILLER_48_109
*1504 FILLER_48_121
*1505 FILLER_48_133
*1506 FILLER_48_139
*1507 FILLER_48_141
*1508 FILLER_48_15
*1509 FILLER_48_153
*1510 FILLER_48_165
*1511 FILLER_48_177
*1512 FILLER_48_189
*1513 FILLER_48_195
*1514 FILLER_48_197
*1515 FILLER_48_209
*1516 FILLER_48_221
*1517 FILLER_48_233
*1518 FILLER_48_245
*1519 FILLER_48_251
*1520 FILLER_48_253
*1521 FILLER_48_265
*1522 FILLER_48_27
*1523 FILLER_48_277
*1524 FILLER_48_289
*1525 FILLER_48_29
*1526 FILLER_48_297
*1527 FILLER_48_3
*1528 FILLER_48_41
*1529 FILLER_48_53
*1530 FILLER_48_65
*1531 FILLER_48_77
*1532 FILLER_48_83
*1533 FILLER_48_85
*1534 FILLER_48_97
*1535 FILLER_49_105
*1536 FILLER_49_111
*1537 FILLER_49_113
*1538 FILLER_49_125
*1539 FILLER_49_137
*1540 FILLER_49_149
*1541 FILLER_49_15
*1542 FILLER_49_161
*1543 FILLER_49_167
*1544 FILLER_49_169
*1545 FILLER_49_181
*1546 FILLER_49_193
*1547 FILLER_49_205
*1548 FILLER_49_217
*1549 FILLER_49_223
*1550 FILLER_49_225
*1551 FILLER_49_237
*1552 FILLER_49_249
*1553 FILLER_49_261
*1554 FILLER_49_27
*1555 FILLER_49_273
*1556 FILLER_49_279
*1557 FILLER_49_281
*1558 FILLER_49_293
*1559 FILLER_49_3
*1560 FILLER_49_39
*1561 FILLER_49_51
*1562 FILLER_49_55
*1563 FILLER_49_57
*1564 FILLER_49_69
*1565 FILLER_49_81
*1566 FILLER_49_93
*1567 FILLER_4_115
*1568 FILLER_4_123
*1569 FILLER_4_134
*1570 FILLER_4_141
*1571 FILLER_4_153
*1572 FILLER_4_165
*1573 FILLER_4_177
*1574 FILLER_4_189
*1575 FILLER_4_195
*1576 FILLER_4_197
*1577 FILLER_4_209
*1578 FILLER_4_221
*1579 FILLER_4_233
*1580 FILLER_4_24
*1581 FILLER_4_245
*1582 FILLER_4_251
*1583 FILLER_4_253
*1584 FILLER_4_265
*1585 FILLER_4_277
*1586 FILLER_4_289
*1587 FILLER_4_29
*1588 FILLER_4_297
*1589 FILLER_4_3
*1590 FILLER_4_48
*1591 FILLER_4_68
*1592 FILLER_4_78
*1593 FILLER_4_85
*1594 FILLER_4_97
*1595 FILLER_50_109
*1596 FILLER_50_121
*1597 FILLER_50_133
*1598 FILLER_50_139
*1599 FILLER_50_141
*1600 FILLER_50_15
*1601 FILLER_50_153
*1602 FILLER_50_165
*1603 FILLER_50_177
*1604 FILLER_50_189
*1605 FILLER_50_195
*1606 FILLER_50_197
*1607 FILLER_50_209
*1608 FILLER_50_221
*1609 FILLER_50_233
*1610 FILLER_50_245
*1611 FILLER_50_251
*1612 FILLER_50_253
*1613 FILLER_50_265
*1614 FILLER_50_27
*1615 FILLER_50_277
*1616 FILLER_50_289
*1617 FILLER_50_29
*1618 FILLER_50_297
*1619 FILLER_50_3
*1620 FILLER_50_41
*1621 FILLER_50_53
*1622 FILLER_50_65
*1623 FILLER_50_77
*1624 FILLER_50_83
*1625 FILLER_50_85
*1626 FILLER_50_97
*1627 FILLER_51_105
*1628 FILLER_51_111
*1629 FILLER_51_113
*1630 FILLER_51_125