*SPEF "ieee 1481-1999"
*DESIGN "lucaz97_tt_top"
*DATE "11:11:11 Fri 11 11, 1111"
*VENDOR "OpenRCX"
*PROGRAM "Parallel Extraction"
*VERSION "1.0"
*DESIGN_FLOW "NAME_SCOPE LOCAL" "PIN_CAP NONE"
*DIVIDER /
*DELIMITER :
*BUS_DELIMITER []
*T_UNIT 1 NS
*C_UNIT 1 PF
*R_UNIT 1 OHM
*L_UNIT 1 HENRY

*NAME_MAP
*1 io_in[0]
*2 io_in[1]
*3 io_in[2]
*4 io_in[3]
*5 io_in[4]
*6 io_in[5]
*7 io_in[6]
*8 io_in[7]
*9 io_out[0]
*10 io_out[1]
*11 io_out[2]
*12 io_out[3]
*13 io_out[4]
*14 io_out[5]
*15 io_out[6]
*16 io_out[7]
*19 _0000_
*20 _0001_
*21 _0002_
*22 _0003_
*23 _0004_
*24 _0005_
*25 _0006_
*26 _0007_
*27 _0008_
*28 _0009_
*29 _0010_
*30 _0011_
*31 _0012_
*32 _0013_
*33 _0014_
*34 _0015_
*35 _0016_
*36 _0017_
*37 _0018_
*38 _0019_
*39 _0020_
*40 _0021_
*41 _0022_
*42 _0023_
*43 _0024_
*44 _0025_
*45 _0026_
*46 _0027_
*47 _0028_
*48 _0029_
*49 _0030_
*50 _0031_
*51 _0032_
*52 _0033_
*53 _0034_
*54 _0035_
*55 _0036_
*56 _0037_
*57 _0038_
*58 _0039_
*59 _0040_
*60 _0041_
*61 _0042_
*62 _0043_
*63 _0044_
*64 _0045_
*65 _0046_
*66 _0047_
*67 _0048_
*68 _0049_
*69 _0050_
*70 _0051_
*71 _0052_
*72 _0053_
*73 _0054_
*74 _0055_
*75 _0056_
*76 _0057_
*77 _0058_
*78 _0059_
*79 _0060_
*80 _0061_
*81 _0062_
*82 _0063_
*83 _0064_
*84 _0065_
*85 _0066_
*86 _0067_
*87 _0068_
*88 _0069_
*89 _0070_
*90 _0071_
*91 _0072_
*92 _0073_
*93 _0074_
*94 _0075_
*95 _0076_
*96 _0077_
*97 _0078_
*98 _0079_
*99 _0080_
*100 _0081_
*101 _0082_
*102 _0083_
*103 _0084_
*104 _0085_
*105 _0086_
*106 _0087_
*107 _0088_
*108 _0089_
*109 _0090_
*110 _0091_
*111 _0092_
*112 _0093_
*113 _0094_
*114 _0095_
*115 _0096_
*116 _0097_
*117 _0098_
*118 _0099_
*119 _0100_
*120 _0101_
*121 _0102_
*122 _0103_
*123 _0104_
*124 _0105_
*125 _0106_
*126 _0107_
*127 _0108_
*128 _0109_
*129 _0110_
*130 _0111_
*131 _0112_
*132 _0113_
*133 _0114_
*134 _0115_
*135 _0116_
*136 _0117_
*137 _0118_
*138 _0119_
*139 _0120_
*140 _0121_
*141 _0122_
*142 _0123_
*143 _0124_
*144 _0125_
*145 _0126_
*146 _0127_
*147 _0128_
*148 _0129_
*149 _0130_
*150 _0131_
*151 _0132_
*152 _0133_
*153 _0134_
*154 _0135_
*155 _0136_
*156 _0137_
*157 _0138_
*158 _0139_
*159 _0140_
*160 _0141_
*161 _0142_
*162 _0143_
*163 _0144_
*164 _0145_
*165 _0146_
*166 _0147_
*167 _0148_
*168 _0149_
*169 _0150_
*170 _0151_
*171 _0152_
*172 _0153_
*173 _0154_
*174 _0155_
*175 _0156_
*176 _0157_
*177 _0158_
*178 _0159_
*179 _0160_
*180 _0161_
*181 _0162_
*182 _0163_
*183 _0164_
*184 _0165_
*185 _0166_
*186 _0167_
*187 _0168_
*188 _0169_
*189 _0170_
*190 _0171_
*191 _0172_
*192 _0173_
*193 _0174_
*194 _0175_
*195 _0176_
*196 _0177_
*197 _0178_
*198 _0179_
*199 _0180_
*200 _0181_
*201 _0182_
*202 _0183_
*203 _0184_
*204 _0185_
*205 _0186_
*206 _0187_
*207 _0188_
*208 _0189_
*209 _0190_
*210 _0191_
*211 _0192_
*212 _0193_
*213 _0194_
*214 _0195_
*215 _0196_
*216 _0197_
*217 _0198_
*218 _0199_
*219 _0200_
*220 _0201_
*221 _0202_
*222 _0203_
*223 _0204_
*224 _0205_
*225 _0206_
*226 _0207_
*227 _0208_
*228 _0209_
*229 _0210_
*230 _0211_
*231 _0212_
*232 _0213_
*233 _0214_
*234 _0215_
*235 _0216_
*236 _0217_
*237 _0218_
*238 _0219_
*239 _0220_
*240 _0221_
*241 _0222_
*242 _0223_
*243 _0224_
*244 _0225_
*245 _0226_
*246 _0227_
*247 _0228_
*248 _0229_
*249 _0230_
*250 _0231_
*251 _0232_
*252 _0233_
*253 _0234_
*254 _0235_
*255 _0236_
*256 _0237_
*257 _0238_
*258 _0239_
*259 _0240_
*260 _0241_
*261 _0242_
*262 _0243_
*263 _0244_
*264 _0245_
*265 _0246_
*266 _0247_
*267 _0248_
*268 _0249_
*269 _0250_
*270 _0251_
*271 _0252_
*272 _0253_
*273 _0254_
*274 _0255_
*275 _0256_
*276 _0257_
*277 _0258_
*278 _0259_
*279 _0260_
*280 _0261_
*281 _0262_
*282 _0263_
*283 _0264_
*284 _0265_
*285 _0266_
*286 _0267_
*287 _0268_
*288 _0269_
*289 _0270_
*290 _0271_
*291 _0272_
*292 _0273_
*293 _0274_
*294 _0275_
*295 _0276_
*296 _0277_
*297 _0278_
*298 _0279_
*299 _0280_
*300 _0281_
*301 _0282_
*302 _0283_
*303 _0284_
*304 _0285_
*305 _0286_
*306 _0287_
*307 _0288_
*308 _0289_
*309 _0290_
*310 _0291_
*311 _0292_
*312 _0293_
*313 _0294_
*314 _0295_
*315 _0296_
*316 _0297_
*317 _0298_
*318 _0299_
*319 _0300_
*320 _0301_
*321 _0302_
*322 _0303_
*323 _0304_
*324 _0305_
*325 _0306_
*326 _0307_
*327 _0308_
*328 _0309_
*329 _0310_
*330 _0311_
*331 _0312_
*332 _0313_
*333 _0314_
*334 _0315_
*335 _0316_
*336 _0317_
*337 _0318_
*338 _0319_
*339 _0320_
*340 _0321_
*341 _0322_
*342 _0323_
*343 _0324_
*344 _0325_
*345 _0326_
*346 _0327_
*347 _0328_
*348 _0329_
*349 _0330_
*350 _0331_
*351 _0332_
*352 _0333_
*353 _0334_
*354 _0335_
*355 _0336_
*356 _0337_
*357 _0338_
*358 _0339_
*359 _0340_
*360 _0341_
*361 _0342_
*362 _0343_
*363 _0344_
*364 _0345_
*365 _0346_
*366 _0347_
*367 _0348_
*368 _0349_
*369 _0350_
*370 _0351_
*371 _0352_
*372 _0353_
*373 _0354_
*374 _0355_
*375 _0356_
*376 _0357_
*377 _0358_
*378 _0359_
*379 _0360_
*380 _0361_
*381 _0362_
*382 _0363_
*383 _0364_
*384 _0365_
*385 _0366_
*386 _0367_
*387 _0368_
*388 _0369_
*389 _0370_
*390 _0371_
*391 _0372_
*392 _0373_
*393 _0374_
*394 _0375_
*395 _0376_
*396 _0377_
*397 _0378_
*398 _0379_
*399 _0380_
*400 _0381_
*401 _0382_
*402 _0383_
*403 _0384_
*404 _0385_
*405 _0386_
*406 _0387_
*407 _0388_
*408 _0389_
*409 _0390_
*410 _0391_
*411 _0392_
*412 _0393_
*413 _0394_
*414 _0395_
*415 _0396_
*416 _0397_
*417 _0398_
*418 _0399_
*419 _0400_
*420 _0401_
*421 _0402_
*422 _0403_
*423 _0404_
*424 _0405_
*425 _0406_
*426 _0407_
*427 _0408_
*428 _0409_
*429 _0410_
*430 _0411_
*431 _0412_
*432 _0413_
*433 _0414_
*434 _0415_
*435 _0416_
*436 _0417_
*437 _0418_
*438 _0419_
*439 _0420_
*440 _0421_
*441 _0422_
*442 _0423_
*443 _0424_
*444 _0425_
*445 _0426_
*446 _0427_
*447 _0428_
*448 _0429_
*449 _0430_
*450 _0431_
*451 _0432_
*452 _0433_
*453 _0434_
*454 _0435_
*455 _0436_
*456 _0437_
*457 _0438_
*458 _0439_
*459 _0440_
*460 _0441_
*461 _0442_
*462 _0443_
*463 _0444_
*464 _0445_
*465 _0446_
*466 _0447_
*467 _0448_
*468 _0449_
*469 _0450_
*470 _0451_
*471 _0452_
*472 _0453_
*473 _0454_
*474 _0455_
*475 _0456_
*476 _0457_
*477 _0458_
*478 _0459_
*479 _0460_
*480 _0461_
*481 _0462_
*482 _0463_
*483 _0464_
*484 _0465_
*485 _0466_
*486 _0467_
*487 _0468_
*488 _0469_
*489 _0470_
*490 _0471_
*491 _0472_
*492 _0473_
*493 _0474_
*494 _0475_
*495 _0476_
*496 _0477_
*497 _0478_
*498 _0479_
*499 _0480_
*500 _0481_
*501 _0482_
*502 _0483_
*503 _0484_
*504 _0485_
*505 _0486_
*506 _0487_
*507 _0488_
*508 _0489_
*509 _0490_
*510 _0491_
*511 _0492_
*512 _0493_
*513 _0494_
*514 _0495_
*515 _0496_
*516 _0497_
*517 _0498_
*518 _0499_
*519 _0500_
*520 _0501_
*521 _0502_
*522 _0503_
*523 _0504_
*524 _0505_
*525 _0506_
*526 _0507_
*527 _0508_
*528 _0509_
*529 _0510_
*530 _0511_
*531 _0512_
*532 _0513_
*533 _0514_
*534 _0515_
*535 _0516_
*536 _0517_
*537 _0518_
*538 _0519_
*539 _0520_
*540 _0521_
*541 _0522_
*542 _0523_
*543 _0524_
*544 _0525_
*545 _0526_
*546 _0527_
*547 _0528_
*548 _0529_
*549 _0530_
*550 _0531_
*551 _0532_
*552 _0533_
*553 _0534_
*554 _0535_
*555 _0536_
*556 _0537_
*557 _0538_
*558 _0539_
*559 _0540_
*560 _0541_
*561 _0542_
*562 _0543_
*563 _0544_
*564 _0545_
*565 _0546_
*566 _0547_
*567 _0548_
*568 _0549_
*569 _0550_
*570 _0551_
*571 _0552_
*572 _0553_
*573 _0554_
*574 _0555_
*575 _0556_
*576 _0557_
*577 _0558_
*578 _0559_
*579 _0560_
*580 _0561_
*581 _0562_
*582 _0563_
*583 _0564_
*584 _0565_
*585 _0566_
*586 _0567_
*587 _0568_
*588 _0569_
*589 _0570_
*590 _0571_
*591 _0572_
*592 _0573_
*593 _0574_
*594 _0575_
*595 _0576_
*596 _0577_
*597 _0578_
*598 _0579_
*599 _0580_
*600 _0581_
*601 _0582_
*602 _0583_
*603 _0584_
*604 _0585_
*605 _0586_
*606 _0587_
*607 _0588_
*608 _0589_
*609 _0590_
*610 _0591_
*611 _0592_
*612 _0593_
*613 _0594_
*614 _0595_
*615 _0596_
*616 _0597_
*617 _0598_
*618 _0599_
*619 _0600_
*620 _0601_
*621 _0602_
*622 _0603_
*623 _0604_
*624 _0605_
*625 _0606_
*626 _0607_
*627 _0608_
*628 _0609_
*629 _0610_
*630 _0611_
*631 _0612_
*632 _0613_
*633 _0614_
*634 _0615_
*635 _0616_
*636 _0617_
*637 _0618_
*638 _0619_
*639 _0620_
*640 _0621_
*641 _0622_
*642 _0623_
*643 _0624_
*644 _0625_
*645 _0626_
*646 _0627_
*647 _0628_
*648 _0629_
*649 _0630_
*650 _0631_
*651 _0632_
*652 _0633_
*653 _0634_
*654 _0635_
*655 _0636_
*656 _0637_
*657 _0638_
*658 _0639_
*659 _0640_
*660 _0641_
*661 _0642_
*662 _0643_
*663 _0644_
*664 _0645_
*665 _0646_
*666 _0647_
*667 _0648_
*668 _0649_
*669 _0650_
*670 _0651_
*671 _0652_
*672 _0653_
*673 _0654_
*674 _0655_
*675 _0656_
*676 _0657_
*677 _0658_
*678 _0659_
*679 _0660_
*680 _0661_
*681 _0662_
*682 _0663_
*683 _0664_
*684 _0665_
*685 _0666_
*686 _0667_
*687 _0668_
*688 _0669_
*689 _0670_
*690 _0671_
*691 _0672_
*692 _0673_
*693 _0674_
*694 _0675_
*695 _0676_
*696 _0677_
*697 _0678_
*698 _0679_
*699 _0680_
*700 _0681_
*701 _0682_
*702 _0683_
*703 _0684_
*704 _0685_
*705 _0686_
*706 _0687_
*707 _0688_
*708 _0689_
*709 _0690_
*710 _0691_
*711 _0692_
*712 _0693_
*713 _0694_
*714 _0695_
*715 _0696_
*716 _0697_
*717 _0698_
*718 _0699_
*719 _0700_
*720 _0701_
*721 _0702_
*722 _0703_
*723 _0704_
*724 _0705_
*725 _0706_
*726 _0707_
*727 _0708_
*728 _0709_
*729 _0710_
*730 _0711_
*731 _0712_
*732 _0713_
*733 _0714_
*734 _0715_
*735 _0716_
*736 _0717_
*737 _0718_
*738 _0719_
*739 _0720_
*740 _0721_
*741 _0722_
*742 _0723_
*743 _0724_
*744 _0725_
*745 _0726_
*746 _0727_
*747 _0728_
*748 _0729_
*749 _0730_
*750 _0731_
*751 _0732_
*752 _0733_
*753 _0734_
*754 _0735_
*755 _0736_
*756 _0737_
*757 _0738_
*758 _0739_
*759 _0740_
*760 _0741_
*761 _0742_
*762 _0743_
*763 _0744_
*764 _0745_
*765 _0746_
*766 _0747_
*767 _0748_
*768 _0749_
*769 _0750_
*770 _0751_
*771 _0752_
*772 _0753_
*773 _0754_
*774 _0755_
*775 _0756_
*776 _0757_
*777 _0758_
*778 _0759_
*779 _0760_
*780 _0761_
*781 _0762_
*782 _0763_
*783 _0764_
*784 _0765_
*785 _0766_
*786 _0767_
*787 _0768_
*788 _0769_
*789 _0770_
*790 _0771_
*791 _0772_
*792 _0773_
*793 _0774_
*794 _0775_
*795 _0776_
*796 _0777_
*797 _0778_
*798 _0779_
*799 _0780_
*800 _0781_
*801 _0782_
*802 _0783_
*803 _0784_
*804 _0785_
*805 _0786_
*806 _0787_
*807 _0788_
*808 _0789_
*809 _0790_
*810 _0791_
*811 _0792_
*812 _0793_
*813 _0794_
*814 _0795_
*815 _0796_
*816 _0797_
*817 _0798_
*818 _0799_
*819 _0800_
*820 _0801_
*821 _0802_
*822 _0803_
*823 _0804_
*824 _0805_
*825 _0806_
*826 _0807_
*827 _0808_
*828 _0809_
*829 _0810_
*830 _0811_
*831 _0812_
*832 _0813_
*833 _0814_
*834 _0815_
*835 _0816_
*836 _0817_
*837 _0818_
*838 _0819_
*839 _0820_
*840 _0821_
*841 _0822_
*842 _0823_
*843 _0824_
*844 _0825_
*845 _0826_
*846 _0827_
*847 _0828_
*848 _0829_
*849 _0830_
*850 _0831_
*851 _0832_
*852 _0833_
*853 _0834_
*854 _0835_
*855 _0836_
*856 _0837_
*857 _0838_
*858 _0839_
*859 _0840_
*860 _0841_
*861 _0842_
*862 _0843_
*863 _0844_
*864 _0845_
*865 _0846_
*866 _0847_
*867 _0848_
*868 _0849_
*869 _0850_
*870 _0851_
*871 _0852_
*872 _0853_
*873 _0854_
*874 _0855_
*875 _0856_
*876 _0857_
*877 _0858_
*878 _0859_
*879 _0860_
*880 _0861_
*881 _0862_
*882 _0863_
*883 _0864_
*884 _0865_
*885 _0866_
*886 _0867_
*887 _0868_
*888 _0869_
*889 _0870_
*890 _0871_
*891 _0872_
*892 _0873_
*893 _0874_
*894 _0875_
*895 _0876_
*896 _0877_
*897 _0878_
*898 _0879_
*899 _0880_
*900 _0881_
*901 _0882_
*902 _0883_
*903 _0884_
*904 _0885_
*905 _0886_
*906 _0887_
*907 _0888_
*908 _0889_
*909 _0890_
*910 _0891_
*911 _0892_
*912 _0893_
*913 _0894_
*914 _0895_
*915 _0896_
*916 _0897_
*917 _0898_
*918 _0899_
*919 _0900_
*920 _0901_
*921 _0902_
*922 _0903_
*923 _0904_
*924 _0905_
*925 _0906_
*926 _0907_
*927 _0908_
*928 _0909_
*929 _0910_
*930 _0911_
*931 _0912_
*932 _0913_
*933 _0914_
*934 _0915_
*935 _0916_
*936 _0917_
*937 _0918_
*938 _0919_
*939 _0920_
*940 _0921_
*941 _0922_
*942 _0923_
*943 _0924_
*944 _0925_
*945 _0926_
*946 _0927_
*947 _0928_
*948 _0929_
*949 _0930_
*950 _0931_
*951 _0932_
*952 _0933_
*953 _0934_
*954 _0935_
*955 _0936_
*956 _0937_
*957 _0938_
*958 _0939_
*959 _0940_
*960 _0941_
*961 _0942_
*962 _0943_
*963 _0944_
*964 _0945_
*965 _0946_
*966 _0947_
*967 _0948_
*968 _0949_
*969 _0950_
*970 _0951_
*971 _0952_
*972 _0953_
*973 _0954_
*974 _0955_
*975 _0956_
*976 _0957_
*977 _0958_
*978 _0959_
*979 _0960_
*980 _0961_
*981 _0962_
*982 _0963_
*983 _0964_
*984 _0965_
*985 _0966_
*986 _0967_
*987 _0968_
*988 _0969_
*989 _0970_
*990 _0971_
*991 _0972_
*992 _0973_
*993 _0974_
*994 _0975_
*995 _0976_
*996 _0977_
*997 _0978_
*998 _0979_
*999 _0980_
*1000 _0981_
*1001 _0982_
*1002 _0983_
*1003 _0984_
*1004 _0985_
*1005 _0986_
*1006 _0987_
*1007 _0988_
*1008 _0989_
*1009 _0990_
*1010 _0991_
*1011 _0992_
*1012 _0993_
*1013 _0994_
*1014 _0995_
*1015 _0996_
*1016 _0997_
*1017 _0998_
*1018 _0999_
*1019 _1000_
*1020 _1001_
*1021 _1002_
*1022 _1003_
*1023 _1004_
*1024 _1005_
*1025 _1006_
*1026 _1007_
*1027 _1008_
*1028 _1009_
*1029 _1010_
*1030 _1011_
*1031 _1012_
*1032 _1013_
*1033 _1014_
*1034 _1015_
*1035 _1016_
*1036 _1017_
*1037 _1018_
*1038 _1019_
*1039 _1020_
*1040 _1021_
*1041 _1022_
*1042 _1023_
*1043 _1024_
*1044 _1025_
*1045 _1026_
*1046 _1027_
*1047 _1028_
*1048 _1029_
*1049 _1030_
*1050 _1031_
*1051 _1032_
*1052 _1033_
*1053 _1034_
*1054 _1035_
*1055 _1036_
*1056 _1037_
*1057 _1038_
*1058 _1039_
*1059 _1040_
*1060 _1041_
*1061 _1042_
*1062 _1043_
*1063 _1044_
*1064 _1045_
*1065 _1046_
*1066 _1047_
*1067 _1048_
*1068 _1049_
*1069 _1050_
*1070 _1051_
*1071 _1052_
*1072 _1053_
*1073 _1054_
*1074 _1055_
*1075 _1056_
*1076 _1057_
*1077 _1058_
*1078 _1059_
*1079 _1060_
*1080 _1061_
*1081 _1062_
*1082 _1063_
*1083 _1064_
*1084 _1065_
*1085 _1066_
*1086 _1067_
*1087 _1068_
*1088 _1069_
*1089 _1070_
*1090 _1071_
*1091 _1072_
*1092 _1073_
*1093 _1074_
*1094 _1075_
*1095 _1076_
*1096 _1077_
*1097 _1078_
*1098 _1079_
*1099 _1080_
*1100 _1081_
*1101 _1082_
*1102 _1083_
*1103 _1084_
*1104 _1085_
*1105 _1086_
*1106 _1087_
*1107 _1088_
*1108 _1089_
*1109 _1090_
*1110 _1091_
*1111 _1092_
*1112 _1093_
*1113 _1094_
*1114 _1095_
*1115 _1096_
*1116 _1097_
*1117 _1098_
*1118 _1099_
*1119 _1100_
*1120 _1101_
*1121 _1102_
*1122 _1103_
*1123 _1104_
*1124 _1105_
*1125 _1106_
*1126 _1107_
*1127 _1108_
*1128 _1109_
*1129 _1110_
*1130 _1111_
*1131 _1112_
*1132 _1113_
*1133 _1114_
*1134 _1115_
*1135 _1116_
*1136 _1117_
*1137 _1118_
*1138 _1119_
*1139 _1120_
*1140 _1121_
*1141 _1122_
*1142 _1123_
*1143 clknet_0_io_in[0]
*1144 clknet_4_0_0_io_in[0]
*1145 clknet_4_10_0_io_in[0]
*1146 clknet_4_11_0_io_in[0]
*1147 clknet_4_12_0_io_in[0]
*1148 clknet_4_13_0_io_in[0]
*1149 clknet_4_14_0_io_in[0]
*1150 clknet_4_15_0_io_in[0]
*1151 clknet_4_1_0_io_in[0]
*1152 clknet_4_2_0_io_in[0]
*1153 clknet_4_3_0_io_in[0]
*1154 clknet_4_4_0_io_in[0]
*1155 clknet_4_5_0_io_in[0]
*1156 clknet_4_6_0_io_in[0]
*1157 clknet_4_7_0_io_in[0]
*1158 clknet_4_8_0_io_in[0]
*1159 clknet_4_9_0_io_in[0]
*1160 miso
*1161 net1
*1162 net2
*1163 net3
*1164 net4
*1165 net5
*1166 qtcore\.ACC_inst\.data_out\[0\]
*1167 qtcore\.ACC_inst\.data_out\[1\]
*1168 qtcore\.ACC_inst\.data_out\[2\]
*1169 qtcore\.ACC_inst\.data_out\[3\]
*1170 qtcore\.ACC_inst\.data_out\[4\]
*1171 qtcore\.ACC_inst\.data_out\[5\]
*1172 qtcore\.ACC_inst\.data_out\[6\]
*1173 qtcore\.ACC_inst\.data_out\[7\]
*1174 qtcore\.ACC_inst\.scan_in
*1175 qtcore\.ALU_inst\.locking_key\[0\]
*1176 qtcore\.ALU_inst\.locking_key\[1\]
*1177 qtcore\.ALU_inst\.locking_key\[2\]
*1178 qtcore\.ALU_inst\.locking_key\[3\]
*1179 qtcore\.ALU_inst\.locking_key\[4\]
*1180 qtcore\.ALU_inst\.locking_key\[5\]
*1181 qtcore\.IR_inst\.data_out\[0\]
*1182 qtcore\.IR_inst\.data_out\[1\]
*1183 qtcore\.IR_inst\.data_out\[2\]
*1184 qtcore\.IR_inst\.data_out\[3\]
*1185 qtcore\.IR_inst\.data_out\[4\]
*1186 qtcore\.IR_inst\.data_out\[5\]
*1187 qtcore\.IR_inst\.data_out\[6\]
*1188 qtcore\.IR_inst\.scan_in
*1189 qtcore\.PC_inst\.data_out\[0\]
*1190 qtcore\.PC_inst\.data_out\[1\]
*1191 qtcore\.PC_inst\.data_out\[2\]
*1192 qtcore\.PC_inst\.data_out\[3\]
*1193 qtcore\.PC_inst\.scan_in
*1194 qtcore\.cu_inst\.isa_decoder\.locking_key\[4\]
*1195 qtcore\.cu_inst\.isa_decoder\.locking_key\[5\]
*1196 qtcore\.cu_inst\.isa_decoder\.locking_key\[6\]
*1197 qtcore\.cu_inst\.isa_decoder\.locking_key\[7\]
*1198 qtcore\.cu_inst\.locking_key\[10\]
*1199 qtcore\.cu_inst\.locking_key\[11\]
*1200 qtcore\.cu_inst\.locking_key\[6\]
*1201 qtcore\.cu_inst\.locking_key\[7\]
*1202 qtcore\.cu_inst\.locking_key\[8\]
*1203 qtcore\.cu_inst\.locking_key\[9\]
*1204 qtcore\.cu_inst\.state_out\[0\]
*1205 qtcore\.cu_inst\.state_out\[1\]
*1206 qtcore\.memory_inst\.btn_data_out
*1207 qtcore\.memory_inst\.btn_shift_register\.scan_in
*1208 qtcore\.memory_inst\.led_scan_out
*1209 qtcore\.memory_inst\.mem_data_out\[0\]\[0\]
*1210 qtcore\.memory_inst\.mem_data_out\[0\]\[1\]
*1211 qtcore\.memory_inst\.mem_data_out\[0\]\[2\]
*1212 qtcore\.memory_inst\.mem_data_out\[0\]\[3\]
*1213 qtcore\.memory_inst\.mem_data_out\[0\]\[4\]
*1214 qtcore\.memory_inst\.mem_data_out\[0\]\[5\]
*1215 qtcore\.memory_inst\.mem_data_out\[0\]\[6\]
*1216 qtcore\.memory_inst\.mem_data_out\[0\]\[7\]
*1217 qtcore\.memory_inst\.mem_data_out\[10\]\[0\]
*1218 qtcore\.memory_inst\.mem_data_out\[10\]\[1\]
*1219 qtcore\.memory_inst\.mem_data_out\[10\]\[2\]
*1220 qtcore\.memory_inst\.mem_data_out\[10\]\[3\]
*1221 qtcore\.memory_inst\.mem_data_out\[10\]\[4\]
*1222 qtcore\.memory_inst\.mem_data_out\[10\]\[5\]
*1223 qtcore\.memory_inst\.mem_data_out\[10\]\[6\]
*1224 qtcore\.memory_inst\.mem_data_out\[10\]\[7\]
*1225 qtcore\.memory_inst\.mem_data_out\[11\]\[0\]
*1226 qtcore\.memory_inst\.mem_data_out\[11\]\[1\]
*1227 qtcore\.memory_inst\.mem_data_out\[11\]\[2\]
*1228 qtcore\.memory_inst\.mem_data_out\[11\]\[3\]
*1229 qtcore\.memory_inst\.mem_data_out\[11\]\[4\]
*1230 qtcore\.memory_inst\.mem_data_out\[11\]\[5\]
*1231 qtcore\.memory_inst\.mem_data_out\[11\]\[6\]
*1232 qtcore\.memory_inst\.mem_data_out\[11\]\[7\]
*1233 qtcore\.memory_inst\.mem_data_out\[12\]\[0\]
*1234 qtcore\.memory_inst\.mem_data_out\[12\]\[1\]
*1235 qtcore\.memory_inst\.mem_data_out\[12\]\[2\]
*1236 qtcore\.memory_inst\.mem_data_out\[12\]\[3\]
*1237 qtcore\.memory_inst\.mem_data_out\[12\]\[4\]
*1238 qtcore\.memory_inst\.mem_data_out\[12\]\[5\]
*1239 qtcore\.memory_inst\.mem_data_out\[12\]\[6\]
*1240 qtcore\.memory_inst\.mem_data_out\[12\]\[7\]
*1241 qtcore\.memory_inst\.mem_data_out\[13\]\[0\]
*1242 qtcore\.memory_inst\.mem_data_out\[13\]\[1\]
*1243 qtcore\.memory_inst\.mem_data_out\[13\]\[2\]
*1244 qtcore\.memory_inst\.mem_data_out\[13\]\[3\]
*1245 qtcore\.memory_inst\.mem_data_out\[13\]\[4\]
*1246 qtcore\.memory_inst\.mem_data_out\[13\]\[5\]
*1247 qtcore\.memory_inst\.mem_data_out\[13\]\[6\]
*1248 qtcore\.memory_inst\.mem_data_out\[1\]\[0\]
*1249 qtcore\.memory_inst\.mem_data_out\[1\]\[1\]
*1250 qtcore\.memory_inst\.mem_data_out\[1\]\[2\]
*1251 qtcore\.memory_inst\.mem_data_out\[1\]\[3\]
*1252 qtcore\.memory_inst\.mem_data_out\[1\]\[4\]
*1253 qtcore\.memory_inst\.mem_data_out\[1\]\[5\]
*1254 qtcore\.memory_inst\.mem_data_out\[1\]\[6\]
*1255 qtcore\.memory_inst\.mem_data_out\[1\]\[7\]
*1256 qtcore\.memory_inst\.mem_data_out\[2\]\[0\]
*1257 qtcore\.memory_inst\.mem_data_out\[2\]\[1\]
*1258 qtcore\.memory_inst\.mem_data_out\[2\]\[2\]
*1259 qtcore\.memory_inst\.mem_data_out\[2\]\[3\]
*1260 qtcore\.memory_inst\.mem_data_out\[2\]\[4\]
*1261 qtcore\.memory_inst\.mem_data_out\[2\]\[5\]
*1262 qtcore\.memory_inst\.mem_data_out\[2\]\[6\]
*1263 qtcore\.memory_inst\.mem_data_out\[2\]\[7\]
*1264 qtcore\.memory_inst\.mem_data_out\[3\]\[0\]
*1265 qtcore\.memory_inst\.mem_data_out\[3\]\[1\]
*1266 qtcore\.memory_inst\.mem_data_out\[3\]\[2\]
*1267 qtcore\.memory_inst\.mem_data_out\[3\]\[3\]
*1268 qtcore\.memory_inst\.mem_data_out\[3\]\[4\]
*1269 qtcore\.memory_inst\.mem_data_out\[3\]\[5\]
*1270 qtcore\.memory_inst\.mem_data_out\[3\]\[6\]
*1271 qtcore\.memory_inst\.mem_data_out\[3\]\[7\]
*1272 qtcore\.memory_inst\.mem_data_out\[4\]\[0\]
*1273 qtcore\.memory_inst\.mem_data_out\[4\]\[1\]
*1274 qtcore\.memory_inst\.mem_data_out\[4\]\[2\]
*1275 qtcore\.memory_inst\.mem_data_out\[4\]\[3\]
*1276 qtcore\.memory_inst\.mem_data_out\[4\]\[4\]
*1277 qtcore\.memory_inst\.mem_data_out\[4\]\[5\]
*1278 qtcore\.memory_inst\.mem_data_out\[4\]\[6\]
*1279 qtcore\.memory_inst\.mem_data_out\[4\]\[7\]
*1280 qtcore\.memory_inst\.mem_data_out\[5\]\[0\]
*1281 qtcore\.memory_inst\.mem_data_out\[5\]\[1\]
*1282 qtcore\.memory_inst\.mem_data_out\[5\]\[2\]
*1283 qtcore\.memory_inst\.mem_data_out\[5\]\[3\]
*1284 qtcore\.memory_inst\.mem_data_out\[5\]\[4\]
*1285 qtcore\.memory_inst\.mem_data_out\[5\]\[5\]
*1286 qtcore\.memory_inst\.mem_data_out\[5\]\[6\]
*1287 qtcore\.memory_inst\.mem_data_out\[5\]\[7\]
*1288 qtcore\.memory_inst\.mem_data_out\[6\]\[0\]
*1289 qtcore\.memory_inst\.mem_data_out\[6\]\[1\]
*1290 qtcore\.memory_inst\.mem_data_out\[6\]\[2\]
*1291 qtcore\.memory_inst\.mem_data_out\[6\]\[3\]
*1292 qtcore\.memory_inst\.mem_data_out\[6\]\[4\]
*1293 qtcore\.memory_inst\.mem_data_out\[6\]\[5\]
*1294 qtcore\.memory_inst\.mem_data_out\[6\]\[6\]
*1295 qtcore\.memory_inst\.mem_data_out\[6\]\[7\]
*1296 qtcore\.memory_inst\.mem_data_out\[7\]\[0\]
*1297 qtcore\.memory_inst\.mem_data_out\[7\]\[1\]
*1298 qtcore\.memory_inst\.mem_data_out\[7\]\[2\]
*1299 qtcore\.memory_inst\.mem_data_out\[7\]\[3\]
*1300 qtcore\.memory_inst\.mem_data_out\[7\]\[4\]
*1301 qtcore\.memory_inst\.mem_data_out\[7\]\[5\]
*1302 qtcore\.memory_inst\.mem_data_out\[7\]\[6\]
*1303 qtcore\.memory_inst\.mem_data_out\[7\]\[7\]
*1304 qtcore\.memory_inst\.mem_data_out\[8\]\[0\]
*1305 qtcore\.memory_inst\.mem_data_out\[8\]\[1\]
*1306 qtcore\.memory_inst\.mem_data_out\[8\]\[2\]
*1307 qtcore\.memory_inst\.mem_data_out\[8\]\[3\]
*1308 qtcore\.memory_inst\.mem_data_out\[8\]\[4\]
*1309 qtcore\.memory_inst\.mem_data_out\[8\]\[5\]
*1310 qtcore\.memory_inst\.mem_data_out\[8\]\[6\]
*1311 qtcore\.memory_inst\.mem_data_out\[8\]\[7\]
*1312 qtcore\.memory_inst\.mem_data_out\[9\]\[0\]
*1313 qtcore\.memory_inst\.mem_data_out\[9\]\[1\]
*1314 qtcore\.memory_inst\.mem_data_out\[9\]\[2\]
*1315 qtcore\.memory_inst\.mem_data_out\[9\]\[3\]
*1316 qtcore\.memory_inst\.mem_data_out\[9\]\[4\]
*1317 qtcore\.memory_inst\.mem_data_out\[9\]\[5\]
*1318 qtcore\.memory_inst\.mem_data_out\[9\]\[6\]
*1319 qtcore\.memory_inst\.mem_data_out\[9\]\[7\]
*1320 ANTENNA_1
*1321 ANTENNA_2
*1322 ANTENNA_3
*1323 FILLER_0_103
*1324 FILLER_0_109
*1325 FILLER_0_113
*1326 FILLER_0_12
*1327 FILLER_0_132
*1328 FILLER_0_141
*1329 FILLER_0_147
*1330 FILLER_0_156
*1331 FILLER_0_163
*1332 FILLER_0_167
*1333 FILLER_0_169
*1334 FILLER_0_189
*1335 FILLER_0_195
*1336 FILLER_0_197
*1337 FILLER_0_20
*1338 FILLER_0_209
*1339 FILLER_0_220
*1340 FILLER_0_225
*1341 FILLER_0_233
*1342 FILLER_0_237
*1343 FILLER_0_244
*1344 FILLER_0_253
*1345 FILLER_0_26
*1346 FILLER_0_260
*1347 FILLER_0_269
*1348 FILLER_0_276
*1349 FILLER_0_281
*1350 FILLER_0_286
*1351 FILLER_0_29
*1352 FILLER_0_297
*1353 FILLER_0_3
*1354 FILLER_0_35
*1355 FILLER_0_39
*1356 FILLER_0_45
*1357 FILLER_0_54
*1358 FILLER_0_57
*1359 FILLER_0_68
*1360 FILLER_0_80
*1361 FILLER_0_85
*1362 FILLER_0_90
*1363 FILLER_0_97
*1364 FILLER_10_107
*1365 FILLER_10_116
*1366 FILLER_10_12
*1367 FILLER_10_125
*1368 FILLER_10_133
*1369 FILLER_10_139
*1370 FILLER_10_141
*1371 FILLER_10_150
*1372 FILLER_10_170
*1373 FILLER_10_180
*1374 FILLER_10_19
*1375 FILLER_10_190
*1376 FILLER_10_197
*1377 FILLER_10_210
*1378 FILLER_10_218
*1379 FILLER_10_226
*1380 FILLER_10_236
*1381 FILLER_10_249
*1382 FILLER_10_253
*1383 FILLER_10_26
*1384 FILLER_10_262
*1385 FILLER_10_273
*1386 FILLER_10_283
*1387 FILLER_10_29
*1388 FILLER_10_296
*1389 FILLER_10_3
*1390 FILLER_10_35
*1391 FILLER_10_41
*1392 FILLER_10_47
*1393 FILLER_10_62
*1394 FILLER_10_69
*1395 FILLER_10_82
*1396 FILLER_10_85
*1397 FILLER_10_97
*1398 FILLER_11_103
*1399 FILLER_11_110
*1400 FILLER_11_113
*1401 FILLER_11_127
*1402 FILLER_11_137
*1403 FILLER_11_141
*1404 FILLER_11_147
*1405 FILLER_11_160
*1406 FILLER_11_169
*1407 FILLER_11_182
*1408 FILLER_11_188
*1409 FILLER_11_196
*1410 FILLER_11_20
*1411 FILLER_11_203
*1412 FILLER_11_216
*1413 FILLER_11_225
*1414 FILLER_11_231
*1415 FILLER_11_238
*1416 FILLER_11_24
*1417 FILLER_11_249
*1418 FILLER_11_257
*1419 FILLER_11_269
*1420 FILLER_11_278
*1421 FILLER_11_281
*1422 FILLER_11_29
*1423 FILLER_11_291
*1424 FILLER_11_3
*1425 FILLER_11_37
*1426 FILLER_11_46
*1427 FILLER_11_54
*1428 FILLER_11_57
*1429 FILLER_11_66
*1430 FILLER_11_74
*1431 FILLER_11_82
*1432 FILLER_11_86
*1433 FILLER_11_9
*1434 FILLER_12_102
*1435 FILLER_12_126
*1436 FILLER_12_130
*1437 FILLER_12_138
*1438 FILLER_12_141
*1439 FILLER_12_153
*1440 FILLER_12_173
*1441 FILLER_12_186
*1442 FILLER_12_194
*1443 FILLER_12_197
*1444 FILLER_12_204
*1445 FILLER_12_212
*1446 FILLER_12_220
*1447 FILLER_12_228
*1448 FILLER_12_237
*1449 FILLER_12_241
*1450 FILLER_12_25
*1451 FILLER_12_250
*1452 FILLER_12_253
*1453 FILLER_12_261
*1454 FILLER_12_272
*1455 FILLER_12_280
*1456 FILLER_12_286
*1457 FILLER_12_29
*1458 FILLER_12_295
*1459 FILLER_12_3
*1460 FILLER_12_39
*1461 FILLER_12_53
*1462 FILLER_12_59
*1463 FILLER_12_69
*1464 FILLER_12_79
*1465 FILLER_12_83
*1466 FILLER_12_85
*1467 FILLER_12_9
*1468 FILLER_12_91
*1469 FILLER_13_105
*1470 FILLER_13_111
*1471 FILLER_13_113
*1472 FILLER_13_121
*1473 FILLER_13_127
*1474 FILLER_13_137
*1475 FILLER_13_145
*1476 FILLER_13_160
*1477 FILLER_13_169
*1478 FILLER_13_179
*1479 FILLER_13_190
*1480 FILLER_13_201
*1481 FILLER_13_208
*1482 FILLER_13_21
*1483 FILLER_13_214
*1484 FILLER_13_222
*1485 FILLER_13_225
*1486 FILLER_13_230
*1487 FILLER_13_243
*1488 FILLER_13_256
*1489 FILLER_13_267
*1490 FILLER_13_27
*1491 FILLER_13_278
*1492 FILLER_13_281
*1493 FILLER_13_290
*1494 FILLER_13_297
*1495 FILLER_13_3
*1496 FILLER_13_36
*1497 FILLER_13_44
*1498 FILLER_13_54
*1499 FILLER_13_57
*1500 FILLER_13_64
*1501 FILLER_13_85
*1502 FILLER_13_92
*1503 FILLER_14_112
*1504 FILLER_14_124
*1505 FILLER_14_135
*1506 FILLER_14_139
*1507 FILLER_14_141
*1508 FILLER_14_151
*1509 FILLER_14_163
*1510 FILLER_14_172
*1511 FILLER_14_186
*1512 FILLER_14_19
*1513 FILLER_14_193
*1514 FILLER_14_197
*1515 FILLER_14_212
*1516 FILLER_14_223
*1517 FILLER_14_234
*1518 FILLER_14_245
*1519 FILLER_14_251
*1520 FILLER_14_253
*1521 FILLER_14_26
*1522 FILLER_14_265
*1523 FILLER_14_273
*1524 FILLER_14_283
*1525 FILLER_14_29
*1526 FILLER_14_293
*1527 FILLER_14_3
*1528 FILLER_14_40
*1529 FILLER_14_51
*1530 FILLER_14_58
*1531 FILLER_14_70
*1532 FILLER_14_80
*1533 FILLER_14_85
*1534 FILLER_14_91
*1535 FILLER_15_107
*1536 FILLER_15_111
*1537 FILLER_15_113
*1538 FILLER_15_129
*1539 FILLER_15_136
*1540 FILLER_15_157
*1541 FILLER_15_16
*1542 FILLER_15_164
*1543 FILLER_15_169
*1544 FILLER_15_176
*1545 FILLER_15_193
*1546 FILLER_15_20
*1547 FILLER_15_210
*1548 FILLER_15_218
*1549 FILLER_15_225
*1550 FILLER_15_234
*1551 FILLER_15_241
*1552 FILLER_15_248
*1553 FILLER_15_263
*1554 FILLER_15_274
*1555 FILLER_15_28
*1556 FILLER_15_281
*1557 FILLER_15_291
*1558 FILLER_15_3
*1559 FILLER_15_41
*1560 FILLER_15_54
*1561 FILLER_15_57
*1562 FILLER_15_63
*1563 FILLER_15_7
*1564 FILLER_15_78
*1565 FILLER_15_82
*1566 FILLER_15_94
*1567 FILLER_16_107
*1568 FILLER_16_119
*1569 FILLER_16_136
*1570 FILLER_16_141
*1571 FILLER_16_151
*1572 FILLER_16_157
*1573 FILLER_16_161
*1574 FILLER_16_172
*1575 FILLER_16_18
*1576 FILLER_16_183
*1577 FILLER_16_193
*1578 FILLER_16_197
*1579 FILLER_16_201
*1580 FILLER_16_208
*1581 FILLER_16_22
*1582 FILLER_16_221
*1583 FILLER_16_228
*1584 FILLER_16_238
*1585 FILLER_16_249
*1586 FILLER_16_253
*1587 FILLER_16_26
*1588 FILLER_16_260
*1589 FILLER_16_268
*1590 FILLER_16_279
*1591 FILLER_16_285
*1592 FILLER_16_29
*1593 FILLER_16_292
*1594 FILLER_16_298
*1595 FILLER_16_3
*1596 FILLER_16_33
*1597 FILLER_16_38
*1598 FILLER_16_58
*1599 FILLER_16_64
*1600 FILLER_16_82
*1601 FILLER_16_85
*1602 FILLER_16_9
*1603 FILLER_16_96
*1604 FILLER_17_102
*1605 FILLER_17_106
*1606 FILLER_17_110
*1607 FILLER_17_113
*1608 FILLER_17_127
*1609 FILLER_17_148
*1610 FILLER_17_156
*1611 FILLER_17_166
*1612 FILLER_17_169
*1613 FILLER_17_178
*1614 FILLER_17_189
*1615 FILLER_17_195
*1616 FILLER_17_203
*1617 FILLER_17_21
*1618 FILLER_17_211
*1619 FILLER_17_219
*1620 FILLER_17_223
*1621 FILLER_17_225
*1622 FILLER_17_234
*1623 FILLER_17_250
*1624 FILLER_17_258
*1625 FILLER_17_27
*1626 FILLER_17_270
*1627 FILLER_17_278
*1628 FILLER_17_281
*1629 FILLER_17_285
*1630 FILLER_17_293
*1631 FILLER_17_3
*1632 FILLER_17_34
*1633 FILLER_17_43
*1634 FILLER_17_47
*1635 FILLER_17_54
*1636 FILLER_17_57
*1637 FILLER_17_69
*1638 FILLER_17_77
*1639 FILLER_17_88
*1640 FILLER_17_92
*1641 FILLER_18_112
*1642 FILLER_18_119
*1643 FILLER_18_131
*1644 FILLER_18_138
*1645 FILLER_18_141
*1646 FILLER_18_148
*1647 FILLER_18_152
*1648 FILLER_18_160
*1649 FILLER_18_17
*1650 FILLER_18_180
*1651 FILLER_18_193
*1652 FILLER_18_197
*1653 FILLER_18_206
*1654 FILLER_18_216
*1655 FILLER_18_224
*1656 FILLER_18_230
*1657 FILLER_18_237
*1658 FILLER_18_247
*1659 FILLER_18_251
*1660 FILLER_18_253
*1661 FILLER_18_259
*1662 FILLER_18_26
*1663 FILLER_18_265
*1664 FILLER_18_273
*1665 FILLER_18_281
*1666 FILLER_18_285
*1667 FILLER_18_29
*1668 FILLER_18_291
*1669 FILLER_18_3
*1670 FILLER_18_41
*1671 FILLER_18_45
*1672 FILLER_18_52
*1673 FILLER_18_77
*1674 FILLER_18_83
*1675 FILLER_18_85
*1676 FILLER_18_9
*1677 FILLER_18_91
*1678 FILLER_19_104
*1679 FILLER_19_113
*1680 FILLER_19_122
*1681 FILLER_19_136
*1682 FILLER_19_148
*1683 FILLER_19_159
*1684 FILLER_19_166
*1685 FILLER_19_169
*1686 FILLER_19_174
*1687 FILLER_19_178
*1688 FILLER_19_188
*1689 FILLER_19_198
*1690 FILLER_19_208
*1691 FILLER_19_212
*1692 FILLER_19_217
*1693 FILLER_19_223
*1694 FILLER_19_225
*1695 FILLER_19_236
*1696 FILLER_19_245
*1697 FILLER_19_249
*1698 FILLER_19_257
*1699 FILLER_19_268
*1700 FILLER_19_27
*1701 FILLER_19_276
*1702 FILLER_19_281
*1703 FILLER_19_285
*1704 FILLER_19_291
*1705 FILLER_19_3
*1706 FILLER_19_37
*1707 FILLER_19_49
*1708 FILLER_19_55
*1709 FILLER_19_57
*1710 FILLER_19_68
*1711 FILLER_19_78
*1712 FILLER_19_86
*1713 FILLER_19_92
*1714 FILLER_1_110
*1715 FILLER_1_113
*1716 FILLER_1_124
*1717 FILLER_1_146
*1718 FILLER_1_166
*1719 FILLER_1_169
*1720 FILLER_1_176
*1721 FILLER_1_18
*1722 FILLER_1_201
*1723 FILLER_1_218
*1724 FILLER_1_225
*1725 FILLER_1_233
*1726 FILLER_1_241
*1727 FILLER_1_259
*1728 FILLER_1_268
*1729 FILLER_1_275
*1730 FILLER_1_279
*1731 FILLER_1_281
*1732 FILLER_1_286
*1733 FILLER_1_29
*1734 FILLER_1_293
*1735 FILLER_1_3