*SPEF "ieee 1481-1999"
*DESIGN "lukevassallo_xor_cipher"
*DATE "11:11:11 Fri 11 11, 1111"
*VENDOR "OpenRCX"
*PROGRAM "Parallel Extraction"
*VERSION "1.0"
*DESIGN_FLOW "NAME_SCOPE LOCAL" "PIN_CAP NONE"
*DIVIDER /
*DELIMITER :
*BUS_DELIMITER []
*T_UNIT 1 NS
*C_UNIT 1 PF
*R_UNIT 1 OHM
*L_UNIT 1 HENRY

*NAME_MAP
*1 io_in[0]
*2 io_in[1]
*3 io_in[2]
*4 io_in[3]
*5 io_in[4]
*6 io_in[5]
*7 io_in[6]
*8 io_in[7]
*9 io_out[0]
*10 io_out[1]
*11 io_out[2]
*12 io_out[3]
*13 io_out[4]
*14 io_out[5]
*15 io_out[6]
*16 io_out[7]
*19 _0000_
*20 _0001_
*21 _0002_
*22 _0003_
*23 _0004_
*24 _0005_
*25 _0006_
*26 _0007_
*27 _0008_
*28 _0009_
*29 _0010_
*30 _0011_
*31 _0012_
*32 _0013_
*33 _0014_
*34 _0015_
*35 _0016_
*36 _0017_
*37 _0018_
*38 _0019_
*39 _0020_
*40 _0021_
*41 _0022_
*42 _0023_
*43 _0024_
*44 _0025_
*45 _0026_
*46 _0027_
*47 _0028_
*48 _0029_
*49 _0030_
*50 _0031_
*51 _0032_
*52 _0033_
*53 _0034_
*54 _0035_
*55 _0036_
*56 _0037_
*57 _0038_
*58 _0039_
*59 _0040_
*60 _0041_
*61 _0042_
*62 _0043_
*63 _0044_
*64 _0045_
*65 _0046_
*66 _0047_
*67 _0048_
*68 _0049_
*69 _0050_
*70 _0051_
*71 _0052_
*72 _0053_
*73 _0054_
*74 _0055_
*75 _0056_
*76 _0057_
*77 _0058_
*78 _0059_
*79 _0060_
*80 _0061_
*81 _0062_
*82 _0063_
*83 _0064_
*84 _0065_
*85 _0066_
*86 _0067_
*87 _0068_
*88 _0069_
*89 _0070_
*90 _0071_
*91 _0072_
*92 _0073_
*93 _0074_
*94 _0075_
*95 _0076_
*96 _0077_
*97 _0078_
*98 _0079_
*99 _0080_
*100 _0081_
*101 _0082_
*102 _0083_
*103 _0084_
*104 _0085_
*105 _0086_
*106 _0087_
*107 _0088_
*108 _0089_
*109 _0090_
*110 _0091_
*111 _0092_
*112 _0093_
*113 _0094_
*114 _0095_
*115 _0096_
*116 _0097_
*117 _0098_
*118 _0099_
*119 _0100_
*120 _0101_
*121 _0102_
*122 _0103_
*123 _0104_
*124 _0105_
*125 _0106_
*126 _0107_
*127 _0108_
*128 _0109_
*129 _0110_
*130 _0111_
*131 _0112_
*132 _0113_
*133 _0114_
*134 _0115_
*135 _0116_
*136 _0117_
*137 _0118_
*138 _0119_
*139 _0120_
*140 _0121_
*141 _0122_
*142 _0123_
*143 _0124_
*144 _0125_
*145 _0126_
*146 _0127_
*147 _0128_
*148 _0129_
*149 _0130_
*150 _0131_
*151 _0132_
*152 _0133_
*153 _0134_
*154 _0135_
*155 _0136_
*156 _0137_
*157 _0138_
*158 _0139_
*159 _0140_
*160 _0141_
*161 _0142_
*162 _0143_
*163 _0144_
*164 _0145_
*165 _0146_
*166 _0147_
*167 _0148_
*168 _0149_
*169 _0150_
*170 _0151_
*171 _0152_
*172 _0153_
*173 _0154_
*174 _0155_
*175 _0156_
*176 _0157_
*177 _0158_
*178 _0159_
*179 _0160_
*180 _0161_
*181 _0162_
*182 _0163_
*183 _0164_
*184 _0165_
*185 _0166_
*186 _0167_
*187 _0168_
*188 _0169_
*189 _0170_
*190 _0171_
*191 _0172_
*192 _0173_
*193 _0174_
*194 _0175_
*195 _0176_
*196 _0177_
*197 _0178_
*198 _0179_
*199 _0180_
*200 _0181_
*201 _0182_
*202 _0183_
*203 _0184_
*204 _0185_
*205 _0186_
*206 _0187_
*207 _0188_
*208 _0189_
*209 _0190_
*210 _0191_
*211 _0192_
*212 _0193_
*213 _0194_
*214 _0195_
*215 _0196_
*216 _0197_
*217 _0198_
*218 _0199_
*219 _0200_
*220 _0201_
*221 _0202_
*222 _0203_
*223 _0204_
*224 _0205_
*225 _0206_
*226 _0207_
*227 _0208_
*228 _0209_
*229 _0210_
*230 _0211_
*231 _0212_
*232 _0213_
*233 _0214_
*234 _0215_
*235 _0216_
*236 _0217_
*237 _0218_
*238 _0219_
*239 _0220_
*240 _0221_
*241 _0222_
*242 _0223_
*243 _0224_
*244 _0225_
*245 _0226_
*246 _0227_
*247 _0228_
*248 _0229_
*249 _0230_
*250 _0231_
*251 _0232_
*252 _0233_
*253 _0234_
*254 _0235_
*255 _0236_
*256 _0237_
*257 _0238_
*258 _0239_
*259 _0240_
*260 _0241_
*261 _0242_
*262 _0243_
*263 _0244_
*264 _0245_
*265 _0246_
*266 _0247_
*267 _0248_
*268 _0249_
*269 _0250_
*270 _0251_
*271 _0252_
*272 _0253_
*273 _0254_
*274 _0255_
*275 _0256_
*276 _0257_
*277 _0258_
*278 _0259_
*279 _0260_
*280 _0261_
*281 _0262_
*282 _0263_
*283 _0264_
*284 _0265_
*285 _0266_
*286 _0267_
*287 _0268_
*288 _0269_
*289 _0270_
*290 _0271_
*291 _0272_
*292 _0273_
*293 _0274_
*294 _0275_
*295 _0276_
*296 _0277_
*297 _0278_
*298 _0279_
*299 _0280_
*300 _0281_
*301 _0282_
*302 _0283_
*303 _0284_
*304 _0285_
*305 _0286_
*306 _0287_
*307 _0288_
*308 _0289_
*309 _0290_
*310 _0291_
*311 _0292_
*312 _0293_
*313 _0294_
*314 _0295_
*315 _0296_
*316 _0297_
*317 _0298_
*318 _0299_
*319 _0300_
*320 _0301_
*321 _0302_
*322 _0303_
*323 _0304_
*324 _0305_
*325 _0306_
*326 _0307_
*327 _0308_
*328 _0309_
*329 _0310_
*330 _0311_
*331 _0312_
*332 _0313_
*333 _0314_
*334 _0315_
*335 _0316_
*336 _0317_
*337 _0318_
*338 _0319_
*339 _0320_
*340 _0321_
*341 _0322_
*342 _0323_
*343 _0324_
*344 _0325_
*345 _0326_
*346 _0327_
*347 _0328_
*348 _0329_
*349 _0330_
*350 _0331_
*351 _0332_
*352 _0333_
*353 _0334_
*354 _0335_
*355 _0336_
*356 _0337_
*357 _0338_
*358 _0339_
*359 _0340_
*360 _0341_
*361 _0342_
*362 _0343_
*363 _0344_
*364 _0345_
*365 _0346_
*366 _0347_
*367 _0348_
*368 _0349_
*369 _0350_
*370 _0351_
*371 _0352_
*372 _0353_
*373 _0354_
*374 _0355_
*375 _0356_
*376 _0357_
*377 _0358_
*378 _0359_
*379 _0360_
*380 _0361_
*381 _0362_
*382 _0363_
*383 _0364_
*384 _0365_
*385 _0366_
*386 _0367_
*387 _0368_
*388 _0369_
*389 _0370_
*390 _0371_
*391 _0372_
*392 _0373_
*393 _0374_
*394 _0375_
*395 _0376_
*396 _0377_
*397 _0378_
*398 _0379_
*399 _0380_
*400 _0381_
*401 _0382_
*402 _0383_
*403 _0384_
*404 _0385_
*405 _0386_
*406 _0387_
*407 _0388_
*408 _0389_
*409 _0390_
*410 _0391_
*411 _0392_
*412 _0393_
*413 _0394_
*414 _0395_
*415 _0396_
*416 _0397_
*417 _0398_
*418 _0399_
*419 _0400_
*420 _0401_
*421 _0402_
*422 _0403_
*423 _0404_
*424 _0405_
*425 _0406_
*426 _0407_
*427 _0408_
*428 _0409_
*429 _0410_
*430 _0411_
*431 _0412_
*432 _0413_
*433 _0414_
*434 _0415_
*435 _0416_
*436 _0417_
*437 _0418_
*438 _0419_
*439 _0420_
*440 _0421_
*441 _0422_
*442 _0423_
*443 _0424_
*444 _0425_
*445 _0426_
*446 _0427_
*447 _0428_
*448 _0429_
*449 _0430_
*450 _0431_
*451 _0432_
*452 _0433_
*453 _0434_
*454 _0435_
*455 _0436_
*456 _0437_
*457 _0438_
*458 _0439_
*459 _0440_
*460 _0441_
*461 _0442_
*462 _0443_
*463 _0444_
*464 _0445_
*465 _0446_
*466 _0447_
*467 _0448_
*468 _0449_
*469 _0450_
*470 _0451_
*471 _0452_
*472 _0453_
*473 _0454_
*474 _0455_
*475 _0456_
*476 _0457_
*477 _0458_
*478 _0459_
*479 _0460_
*480 _0461_
*481 _0462_
*482 _0463_
*483 _0464_
*484 _0465_
*485 _0466_
*486 _0467_
*487 _0468_
*488 _0469_
*489 _0470_
*490 _0471_
*491 _0472_
*492 _0473_
*493 _0474_
*494 _0475_
*495 _0476_
*496 _0477_
*497 _0478_
*498 _0479_
*499 _0480_
*500 _0481_
*501 _0482_
*502 _0483_
*503 _0484_
*504 _0485_
*505 _0486_
*506 _0487_
*507 _0488_
*508 _0489_
*509 _0490_
*510 _0491_
*511 _0492_
*512 _0493_
*513 _0494_
*514 _0495_
*515 _0496_
*516 _0497_
*517 _0498_
*518 _0499_
*519 _0500_
*520 _0501_
*521 _0502_
*522 _0503_
*523 _0504_
*524 _0505_
*525 _0506_
*526 _0507_
*527 _0508_
*528 _0509_
*529 _0510_
*530 _0511_
*531 _0512_
*532 _0513_
*533 _0514_
*534 _0515_
*535 _0516_
*536 _0517_
*537 _0518_
*538 _0519_
*539 _0520_
*540 _0521_
*541 _0522_
*542 _0523_
*543 _0524_
*544 _0525_
*545 _0526_
*546 _0527_
*547 _0528_
*548 _0529_
*549 _0530_
*550 _0531_
*551 _0532_
*552 _0533_
*553 _0534_
*554 _0535_
*555 _0536_
*556 _0537_
*557 _0538_
*558 _0539_
*559 _0540_
*560 _0541_
*561 _0542_
*562 _0543_
*563 _0544_
*564 _0545_
*565 _0546_
*566 _0547_
*567 _0548_
*568 _0549_
*569 _0550_
*570 _0551_
*571 _0552_
*572 _0553_
*573 _0554_
*574 _0555_
*575 _0556_
*576 _0557_
*577 _0558_
*578 _0559_
*579 _0560_
*580 _0561_
*581 _0562_
*582 _0563_
*583 _0564_
*584 _0565_
*585 _0566_
*586 _0567_
*587 _0568_
*588 _0569_
*589 _0570_
*590 _0571_
*591 _0572_
*592 _0573_
*593 _0574_
*594 _0575_
*595 _0576_
*596 _0577_
*597 _0578_
*598 _0579_
*599 _0580_
*600 _0581_
*601 _0582_
*602 _0583_
*603 _0584_
*604 _0585_
*605 _0586_
*606 _0587_
*607 _0588_
*608 _0589_
*609 _0590_
*610 _0591_
*611 _0592_
*612 _0593_
*613 _0594_
*614 _0595_
*615 _0596_
*616 _0597_
*617 _0598_
*618 _0599_
*619 _0600_
*620 _0601_
*621 _0602_
*622 _0603_
*623 _0604_
*624 _0605_
*625 _0606_
*626 _0607_
*627 _0608_
*628 _0609_
*629 _0610_
*630 _0611_
*631 _0612_
*632 _0613_
*633 _0614_
*634 _0615_
*635 _0616_
*636 _0617_
*637 _0618_
*638 _0619_
*639 _0620_
*640 _0621_
*641 _0622_
*642 _0623_
*643 _0624_
*644 _0625_
*645 _0626_
*646 _0627_
*647 _0628_
*648 _0629_
*649 _0630_
*650 _0631_
*651 _0632_
*652 _0633_
*653 _0634_
*654 _0635_
*655 _0636_
*656 _0637_
*657 _0638_
*658 _0639_
*659 _0640_
*660 _0641_
*661 _0642_
*662 _0643_
*663 _0644_
*664 _0645_
*665 _0646_
*666 _0647_
*667 _0648_
*668 _0649_
*669 _0650_
*670 _0651_
*671 _0652_
*672 _0653_
*673 _0654_
*674 _0655_
*675 _0656_
*676 _0657_
*677 _0658_
*678 _0659_
*679 _0660_
*680 _0661_
*681 _0662_
*682 _0663_
*683 _0664_
*684 _0665_
*685 _0666_
*686 _0667_
*687 _0668_
*688 _0669_
*689 _0670_
*690 _0671_
*691 _0672_
*692 _0673_
*693 _0674_
*694 _0675_
*695 _0676_
*696 _0677_
*697 _0678_
*698 _0679_
*699 _0680_
*700 _0681_
*701 _0682_
*702 _0683_
*703 _0684_
*704 _0685_
*705 _0686_
*706 _0687_
*707 _0688_
*708 _0689_
*709 _0690_
*710 _0691_
*711 _0692_
*712 _0693_
*713 _0694_
*714 _0695_
*715 _0696_
*716 _0697_
*717 _0698_
*718 _0699_
*719 _0700_
*720 _0701_
*721 _0702_
*722 _0703_
*723 _0704_
*724 _0705_
*725 _0706_
*726 _0707_
*727 _0708_
*728 _0709_
*729 _0710_
*730 _0711_
*731 _0712_
*732 _0713_
*733 _0714_
*734 _0715_
*735 _0716_
*736 _0717_
*737 _0718_
*738 _0719_
*739 _0720_
*740 _0721_
*741 _0722_
*742 _0723_
*743 _0724_
*744 _0725_
*745 _0726_
*746 _0727_
*747 _0728_
*748 _0729_
*749 _0730_
*750 _0731_
*751 _0732_
*752 _0733_
*753 _0734_
*754 _0735_
*755 _0736_
*756 _0737_
*757 _0738_
*758 _0739_
*759 _0740_
*760 _0741_
*761 _0742_
*762 _0743_
*763 _0744_
*764 _0745_
*765 _0746_
*766 _0747_
*767 _0748_
*768 _0749_
*769 _0750_
*770 _0751_
*771 _0752_
*772 _0753_
*773 _0754_
*774 _0755_
*775 _0756_
*776 _0757_
*777 _0758_
*778 _0759_
*779 _0760_
*780 _0761_
*781 _0762_
*782 _0763_
*783 _0764_
*784 _0765_
*785 _0766_
*786 _0767_
*787 _0768_
*788 _0769_
*789 _0770_
*790 _0771_
*791 _0772_
*792 _0773_
*793 _0774_
*794 _0775_
*795 _0776_
*796 _0777_
*797 _0778_
*798 _0779_
*799 _0780_
*800 _0781_
*801 _0782_
*802 _0783_
*803 _0784_
*804 _0785_
*805 _0786_
*806 _0787_
*807 _0788_
*808 _0789_
*809 _0790_
*810 _0791_
*811 _0792_
*812 _0793_
*813 _0794_
*814 _0795_
*815 _0796_
*816 _0797_
*817 _0798_
*818 _0799_
*819 _0800_
*820 _0801_
*821 _0802_
*822 _0803_
*823 _0804_
*824 _0805_
*825 _0806_
*826 _0807_
*827 _0808_
*828 _0809_
*829 _0810_
*830 _0811_
*831 _0812_
*832 _0813_
*833 _0814_
*834 _0815_
*835 _0816_
*836 _0817_
*837 _0818_
*838 _0819_
*839 _0820_
*840 _0821_
*841 _0822_
*842 _0823_
*843 _0824_
*844 _0825_
*845 _0826_
*846 _0827_
*847 _0828_
*848 _0829_
*849 _0830_
*850 _0831_
*851 _0832_
*852 _0833_
*853 _0834_
*854 _0835_
*855 _0836_
*856 _0837_
*857 _0838_
*858 _0839_
*859 _0840_
*860 _0841_
*861 _0842_
*862 _0843_
*863 _0844_
*864 _0845_
*865 _0846_
*866 _0847_
*867 _0848_
*868 _0849_
*869 _0850_
*870 _0851_
*871 _0852_
*872 _0853_
*873 _0854_
*874 _0855_
*875 _0856_
*876 _0857_
*877 _0858_
*878 _0859_
*879 _0860_
*880 _0861_
*881 _0862_
*882 _0863_
*883 _0864_
*884 _0865_
*885 _0866_
*886 _0867_
*887 _0868_
*888 _0869_
*889 _0870_
*890 _0871_
*891 _0872_
*892 _0873_
*893 _0874_
*894 _0875_
*895 _0876_
*896 _0877_
*897 _0878_
*898 _0879_
*899 _0880_
*900 _0881_
*901 _0882_
*902 _0883_
*903 _0884_
*904 _0885_
*905 _0886_
*906 _0887_
*907 _0888_
*908 _0889_
*909 _0890_
*910 _0891_
*911 _0892_
*912 _0893_
*913 _0894_
*914 _0895_
*915 _0896_
*916 _0897_
*917 _0898_
*918 _0899_
*919 _0900_
*920 _0901_
*921 _0902_
*922 _0903_
*923 _0904_
*924 _0905_
*925 _0906_
*926 _0907_
*927 _0908_
*928 _0909_
*929 _0910_
*930 _0911_
*931 _0912_
*932 _0913_
*933 _0914_
*934 _0915_
*935 _0916_
*936 _0917_
*937 _0918_
*938 _0919_
*939 _0920_
*940 _0921_
*941 _0922_
*942 _0923_
*943 _0924_
*944 _0925_
*945 _0926_
*946 _0927_
*947 _0928_
*948 _0929_
*949 _0930_
*950 _0931_
*951 _0932_
*952 _0933_
*953 _0934_
*954 _0935_
*955 _0936_
*956 _0937_
*957 _0938_
*958 _0939_
*959 _0940_
*960 _0941_
*961 _0942_
*962 _0943_
*963 _0944_
*964 _0945_
*965 _0946_
*966 _0947_
*967 _0948_
*968 _0949_
*969 _0950_
*970 _0951_
*971 _0952_
*972 _0953_
*973 _0954_
*974 _0955_
*975 _0956_
*976 _0957_
*977 _0958_
*978 _0959_
*979 _0960_
*980 _0961_
*981 _0962_
*982 _0963_
*983 _0964_
*984 _0965_
*985 _0966_
*986 _0967_
*987 clknet_0_io_in[0]
*988 clknet_1_0__leaf_io_in[0]
*989 clknet_1_1__leaf_io_in[0]
*990 clknet_leaf_0_io_in[0]
*991 clknet_leaf_10_io_in[0]
*992 clknet_leaf_11_io_in[0]
*993 clknet_leaf_12_io_in[0]
*994 clknet_leaf_13_io_in[0]
*995 clknet_leaf_14_io_in[0]
*996 clknet_leaf_15_io_in[0]
*997 clknet_leaf_16_io_in[0]
*998 clknet_leaf_17_io_in[0]
*999 clknet_leaf_18_io_in[0]
*1000 clknet_leaf_19_io_in[0]
*1001 clknet_leaf_1_io_in[0]
*1002 clknet_leaf_20_io_in[0]
*1003 clknet_leaf_21_io_in[0]
*1004 clknet_leaf_22_io_in[0]
*1005 clknet_leaf_23_io_in[0]
*1006 clknet_leaf_24_io_in[0]
*1007 clknet_leaf_2_io_in[0]
*1008 clknet_leaf_3_io_in[0]
*1009 clknet_leaf_4_io_in[0]
*1010 clknet_leaf_5_io_in[0]
*1011 clknet_leaf_6_io_in[0]
*1012 clknet_leaf_7_io_in[0]
*1013 clknet_leaf_8_io_in[0]
*1014 clknet_leaf_9_io_in[0]
*1015 net1
*1016 net2
*1017 net3
*1018 net4
*1019 net5
*1020 net6
*1021 net7
*1022 uut\.a_mux
*1023 uut\.cfg_o
*1024 uut\.cfg_reg\[0\]
*1025 uut\.cfg_reg\[100\]
*1026 uut\.cfg_reg\[101\]
*1027 uut\.cfg_reg\[102\]
*1028 uut\.cfg_reg\[103\]
*1029 uut\.cfg_reg\[104\]
*1030 uut\.cfg_reg\[105\]
*1031 uut\.cfg_reg\[106\]
*1032 uut\.cfg_reg\[107\]
*1033 uut\.cfg_reg\[108\]
*1034 uut\.cfg_reg\[109\]
*1035 uut\.cfg_reg\[10\]
*1036 uut\.cfg_reg\[110\]
*1037 uut\.cfg_reg\[111\]
*1038 uut\.cfg_reg\[112\]
*1039 uut\.cfg_reg\[113\]
*1040 uut\.cfg_reg\[114\]
*1041 uut\.cfg_reg\[115\]
*1042 uut\.cfg_reg\[116\]
*1043 uut\.cfg_reg\[117\]
*1044 uut\.cfg_reg\[118\]
*1045 uut\.cfg_reg\[119\]
*1046 uut\.cfg_reg\[11\]
*1047 uut\.cfg_reg\[120\]
*1048 uut\.cfg_reg\[121\]
*1049 uut\.cfg_reg\[122\]
*1050 uut\.cfg_reg\[123\]
*1051 uut\.cfg_reg\[124\]
*1052 uut\.cfg_reg\[125\]
*1053 uut\.cfg_reg\[126\]
*1054 uut\.cfg_reg\[127\]
*1055 uut\.cfg_reg\[128\]
*1056 uut\.cfg_reg\[12\]
*1057 uut\.cfg_reg\[13\]
*1058 uut\.cfg_reg\[14\]
*1059 uut\.cfg_reg\[15\]
*1060 uut\.cfg_reg\[16\]
*1061 uut\.cfg_reg\[17\]
*1062 uut\.cfg_reg\[18\]
*1063 uut\.cfg_reg\[19\]
*1064 uut\.cfg_reg\[1\]
*1065 uut\.cfg_reg\[20\]
*1066 uut\.cfg_reg\[21\]
*1067 uut\.cfg_reg\[22\]
*1068 uut\.cfg_reg\[23\]
*1069 uut\.cfg_reg\[24\]
*1070 uut\.cfg_reg\[25\]
*1071 uut\.cfg_reg\[26\]
*1072 uut\.cfg_reg\[27\]
*1073 uut\.cfg_reg\[28\]
*1074 uut\.cfg_reg\[29\]
*1075 uut\.cfg_reg\[2\]
*1076 uut\.cfg_reg\[30\]
*1077 uut\.cfg_reg\[31\]
*1078 uut\.cfg_reg\[32\]
*1079 uut\.cfg_reg\[33\]
*1080 uut\.cfg_reg\[34\]
*1081 uut\.cfg_reg\[35\]
*1082 uut\.cfg_reg\[36\]
*1083 uut\.cfg_reg\[37\]
*1084 uut\.cfg_reg\[38\]
*1085 uut\.cfg_reg\[39\]
*1086 uut\.cfg_reg\[3\]
*1087 uut\.cfg_reg\[40\]
*1088 uut\.cfg_reg\[41\]
*1089 uut\.cfg_reg\[42\]
*1090 uut\.cfg_reg\[43\]
*1091 uut\.cfg_reg\[44\]
*1092 uut\.cfg_reg\[45\]
*1093 uut\.cfg_reg\[46\]
*1094 uut\.cfg_reg\[47\]
*1095 uut\.cfg_reg\[48\]
*1096 uut\.cfg_reg\[49\]
*1097 uut\.cfg_reg\[4\]
*1098 uut\.cfg_reg\[50\]
*1099 uut\.cfg_reg\[51\]
*1100 uut\.cfg_reg\[52\]
*1101 uut\.cfg_reg\[53\]
*1102 uut\.cfg_reg\[54\]
*1103 uut\.cfg_reg\[55\]
*1104 uut\.cfg_reg\[56\]
*1105 uut\.cfg_reg\[57\]
*1106 uut\.cfg_reg\[58\]
*1107 uut\.cfg_reg\[59\]
*1108 uut\.cfg_reg\[5\]
*1109 uut\.cfg_reg\[60\]
*1110 uut\.cfg_reg\[61\]
*1111 uut\.cfg_reg\[62\]
*1112 uut\.cfg_reg\[63\]
*1113 uut\.cfg_reg\[64\]
*1114 uut\.cfg_reg\[65\]
*1115 uut\.cfg_reg\[66\]
*1116 uut\.cfg_reg\[67\]
*1117 uut\.cfg_reg\[68\]
*1118 uut\.cfg_reg\[69\]
*1119 uut\.cfg_reg\[6\]
*1120 uut\.cfg_reg\[70\]
*1121 uut\.cfg_reg\[71\]
*1122 uut\.cfg_reg\[72\]
*1123 uut\.cfg_reg\[73\]
*1124 uut\.cfg_reg\[74\]
*1125 uut\.cfg_reg\[75\]
*1126 uut\.cfg_reg\[76\]
*1127 uut\.cfg_reg\[77\]
*1128 uut\.cfg_reg\[78\]
*1129 uut\.cfg_reg\[79\]
*1130 uut\.cfg_reg\[7\]
*1131 uut\.cfg_reg\[80\]
*1132 uut\.cfg_reg\[81\]
*1133 uut\.cfg_reg\[82\]
*1134 uut\.cfg_reg\[83\]
*1135 uut\.cfg_reg\[84\]
*1136 uut\.cfg_reg\[85\]
*1137 uut\.cfg_reg\[86\]
*1138 uut\.cfg_reg\[87\]
*1139 uut\.cfg_reg\[88\]
*1140 uut\.cfg_reg\[89\]
*1141 uut\.cfg_reg\[8\]
*1142 uut\.cfg_reg\[90\]
*1143 uut\.cfg_reg\[91\]
*1144 uut\.cfg_reg\[92\]
*1145 uut\.cfg_reg\[93\]
*1146 uut\.cfg_reg\[94\]
*1147 uut\.cfg_reg\[95\]
*1148 uut\.cfg_reg\[96\]
*1149 uut\.cfg_reg\[97\]
*1150 uut\.cfg_reg\[98\]
*1151 uut\.cfg_reg\[99\]
*1152 uut\.cfg_reg\[9\]
*1153 uut\.dbg_rx_e
*1154 uut\.dbg_tx_p
*1155 uut\.heartbeat_count\[0\]
*1156 uut\.heartbeat_count\[1\]
*1157 uut\.heartbeat_count\[2\]
*1158 uut\.heartbeat_count\[3\]
*1159 uut\.heartbeat_count\[4\]
*1160 uut\.heartbeat_count\[5\]
*1161 uut\.heartbeat_count\[6\]
*1162 uut\.heartbeat_count\[7\]
*1163 uut\.heartbeat_count\[8\]
*1164 uut\.heartbeat_count\[9\]
*1165 uut\.rx_lfsr_k
*1166 uut\.rx_lfsr_o\[10\]
*1167 uut\.rx_lfsr_o\[11\]
*1168 uut\.rx_lfsr_o\[12\]
*1169 uut\.rx_lfsr_o\[13\]
*1170 uut\.rx_lfsr_o\[14\]
*1171 uut\.rx_lfsr_o\[15\]
*1172 uut\.rx_lfsr_o\[16\]
*1173 uut\.rx_lfsr_o\[17\]
*1174 uut\.rx_lfsr_o\[18\]
*1175 uut\.rx_lfsr_o\[19\]
*1176 uut\.rx_lfsr_o\[1\]
*1177 uut\.rx_lfsr_o\[20\]
*1178 uut\.rx_lfsr_o\[21\]
*1179 uut\.rx_lfsr_o\[22\]
*1180 uut\.rx_lfsr_o\[23\]
*1181 uut\.rx_lfsr_o\[24\]
*1182 uut\.rx_lfsr_o\[25\]
*1183 uut\.rx_lfsr_o\[26\]
*1184 uut\.rx_lfsr_o\[27\]
*1185 uut\.rx_lfsr_o\[28\]
*1186 uut\.rx_lfsr_o\[29\]
*1187 uut\.rx_lfsr_o\[2\]
*1188 uut\.rx_lfsr_o\[30\]
*1189 uut\.rx_lfsr_o\[31\]
*1190 uut\.rx_lfsr_o\[3\]
*1191 uut\.rx_lfsr_o\[4\]
*1192 uut\.rx_lfsr_o\[5\]
*1193 uut\.rx_lfsr_o\[6\]
*1194 uut\.rx_lfsr_o\[7\]
*1195 uut\.rx_lfsr_o\[8\]
*1196 uut\.rx_lfsr_o\[9\]
*1197 uut\.rx_p
*1198 uut\.tx_e
*1199 uut\.tx_lfsr_k
*1200 uut\.tx_lfsr_o\[10\]
*1201 uut\.tx_lfsr_o\[11\]
*1202 uut\.tx_lfsr_o\[12\]
*1203 uut\.tx_lfsr_o\[13\]
*1204 uut\.tx_lfsr_o\[14\]
*1205 uut\.tx_lfsr_o\[15\]
*1206 uut\.tx_lfsr_o\[16\]
*1207 uut\.tx_lfsr_o\[17\]
*1208 uut\.tx_lfsr_o\[18\]
*1209 uut\.tx_lfsr_o\[19\]
*1210 uut\.tx_lfsr_o\[1\]
*1211 uut\.tx_lfsr_o\[20\]
*1212 uut\.tx_lfsr_o\[21\]
*1213 uut\.tx_lfsr_o\[22\]
*1214 uut\.tx_lfsr_o\[23\]
*1215 uut\.tx_lfsr_o\[24\]
*1216 uut\.tx_lfsr_o\[25\]
*1217 uut\.tx_lfsr_o\[26\]
*1218 uut\.tx_lfsr_o\[27\]
*1219 uut\.tx_lfsr_o\[28\]
*1220 uut\.tx_lfsr_o\[29\]
*1221 uut\.tx_lfsr_o\[2\]
*1222 uut\.tx_lfsr_o\[30\]
*1223 uut\.tx_lfsr_o\[31\]
*1224 uut\.tx_lfsr_o\[3\]
*1225 uut\.tx_lfsr_o\[4\]
*1226 uut\.tx_lfsr_o\[5\]
*1227 uut\.tx_lfsr_o\[6\]
*1228 uut\.tx_lfsr_o\[7\]
*1229 uut\.tx_lfsr_o\[8\]
*1230 uut\.tx_lfsr_o\[9\]
*1231 uut\.uut_counter\.count\[0\]
*1232 uut\.uut_counter\.count\[10\]
*1233 uut\.uut_counter\.count\[11\]
*1234 uut\.uut_counter\.count\[12\]
*1235 uut\.uut_counter\.count\[13\]
*1236 uut\.uut_counter\.count\[14\]
*1237 uut\.uut_counter\.count\[15\]
*1238 uut\.uut_counter\.count\[1\]
*1239 uut\.uut_counter\.count\[2\]
*1240 uut\.uut_counter\.count\[3\]
*1241 uut\.uut_counter\.count\[4\]
*1242 uut\.uut_counter\.count\[5\]
*1243 uut\.uut_counter\.count\[6\]
*1244 uut\.uut_counter\.count\[7\]
*1245 uut\.uut_counter\.count\[8\]
*1246 uut\.uut_counter\.count\[9\]
*1247 uut\.uut_signature\.counter\[0\]
*1248 uut\.uut_signature\.counter\[1\]
*1249 uut\.uut_signature\.counter\[2\]
*1250 uut\.uut_signature\.counter\[3\]
*1251 uut\.uut_signature\.counter\[4\]
*1252 uut\.uut_signature\.counter\[5\]
*1253 uut\.uut_signature\.counter\[6\]
*1254 uut\.uut_signature\.counter\[7\]
*1255 uut\.uut_signature\.counter\[8\]
*1256 ANTENNA_1
*1257 ANTENNA_2
*1258 ANTENNA_3
*1259 ANTENNA_4
*1260 ANTENNA_5
*1261 ANTENNA_6
*1262 ANTENNA_7
*1263 ANTENNA_8
*1264 ANTENNA_9
*1265 FILLER_0_110
*1266 FILLER_0_113
*1267 FILLER_0_121
*1268 FILLER_0_128
*1269 FILLER_0_138
*1270 FILLER_0_141
*1271 FILLER_0_147
*1272 FILLER_0_156
*1273 FILLER_0_163
*1274 FILLER_0_167
*1275 FILLER_0_169
*1276 FILLER_0_174
*1277 FILLER_0_178
*1278 FILLER_0_18
*1279 FILLER_0_182
*1280 FILLER_0_191
*1281 FILLER_0_195
*1282 FILLER_0_197
*1283 FILLER_0_202
*1284 FILLER_0_208
*1285 FILLER_0_214
*1286 FILLER_0_218
*1287 FILLER_0_222
*1288 FILLER_0_225
*1289 FILLER_0_229
*1290 FILLER_0_235
*1291 FILLER_0_248
*1292 FILLER_0_253
*1293 FILLER_0_258
*1294 FILLER_0_26
*1295 FILLER_0_265
*1296 FILLER_0_272
*1297 FILLER_0_281
*1298 FILLER_0_286
*1299 FILLER_0_29
*1300 FILLER_0_293
*1301 FILLER_0_3
*1302 FILLER_0_35
*1303 FILLER_0_41
*1304 FILLER_0_46
*1305 FILLER_0_54
*1306 FILLER_0_57
*1307 FILLER_0_63
*1308 FILLER_0_69
*1309 FILLER_0_77
*1310 FILLER_0_8
*1311 FILLER_0_81
*1312 FILLER_0_85
*1313 FILLER_0_91
*1314 FILLER_0_99
*1315 FILLER_10_116
*1316 FILLER_10_124
*1317 FILLER_10_132
*1318 FILLER_10_141
*1319 FILLER_10_147
*1320 FILLER_10_155
*1321 FILLER_10_166
*1322 FILLER_10_17
*1323 FILLER_10_174
*1324 FILLER_10_191
*1325 FILLER_10_195
*1326 FILLER_10_197
*1327 FILLER_10_203
*1328 FILLER_10_21
*1329 FILLER_10_211
*1330 FILLER_10_228
*1331 FILLER_10_245
*1332 FILLER_10_251
*1333 FILLER_10_253
*1334 FILLER_10_26
*1335 FILLER_10_265
*1336 FILLER_10_274
*1337 FILLER_10_280
*1338 FILLER_10_29
*1339 FILLER_10_297
*1340 FILLER_10_3
*1341 FILLER_10_39
*1342 FILLER_10_43
*1343 FILLER_10_67
*1344 FILLER_10_75
*1345 FILLER_10_82
*1346 FILLER_10_85
*1347 FILLER_10_96
*1348 FILLER_11_104
*1349 FILLER_11_110
*1350 FILLER_11_113
*1351 FILLER_11_117
*1352 FILLER_11_125
*1353 FILLER_11_147
*1354 FILLER_11_160
*1355 FILLER_11_169
*1356 FILLER_11_17
*1357 FILLER_11_176
*1358 FILLER_11_185
*1359 FILLER_11_191
*1360 FILLER_11_199
*1361 FILLER_11_209
*1362 FILLER_11_213
*1363 FILLER_11_220
*1364 FILLER_11_225
*1365 FILLER_11_235
*1366 FILLER_11_243
*1367 FILLER_11_249
*1368 FILLER_11_25
*1369 FILLER_11_258
*1370 FILLER_11_268
*1371 FILLER_11_272
*1372 FILLER_11_278
*1373 FILLER_11_281
*1374 FILLER_11_292
*1375 FILLER_11_298
*1376 FILLER_11_3
*1377 FILLER_11_35
*1378 FILLER_11_47
*1379 FILLER_11_54
*1380 FILLER_11_57
*1381 FILLER_11_65
*1382 FILLER_11_72
*1383 FILLER_11_76
*1384 FILLER_11_9
*1385 FILLER_11_98
*1386 FILLER_12_100
*1387 FILLER_12_107
*1388 FILLER_12_115
*1389 FILLER_12_126
*1390 FILLER_12_13
*1391 FILLER_12_135
*1392 FILLER_12_139
*1393 FILLER_12_141
*1394 FILLER_12_159
*1395 FILLER_12_166
*1396 FILLER_12_179
*1397 FILLER_12_183
*1398 FILLER_12_188
*1399 FILLER_12_197
*1400 FILLER_12_204
*1401 FILLER_12_216
*1402 FILLER_12_224
*1403 FILLER_12_23
*1404 FILLER_12_242
*1405 FILLER_12_250
*1406 FILLER_12_253
*1407 FILLER_12_259
*1408 FILLER_12_27
*1409 FILLER_12_276
*1410 FILLER_12_280
*1411 FILLER_12_29
*1412 FILLER_12_297
*1413 FILLER_12_3
*1414 FILLER_12_40
*1415 FILLER_12_49
*1416 FILLER_12_58
*1417 FILLER_12_67
*1418 FILLER_12_73
*1419 FILLER_12_81
*1420 FILLER_12_85
*1421 FILLER_12_89
*1422 FILLER_12_9
*1423 FILLER_12_93
*1424 FILLER_13_102
*1425 FILLER_13_106
*1426 FILLER_13_110
*1427 FILLER_13_113
*1428 FILLER_13_117
*1429 FILLER_13_134
*1430 FILLER_13_138
*1431 FILLER_13_144
*1432 FILLER_13_153
*1433 FILLER_13_166
*1434 FILLER_13_169
*1435 FILLER_13_177
*1436 FILLER_13_183
*1437 FILLER_13_191
*1438 FILLER_13_199
*1439 FILLER_13_205
*1440 FILLER_13_213
*1441 FILLER_13_222
*1442 FILLER_13_225
*1443 FILLER_13_235
*1444 FILLER_13_243
*1445 FILLER_13_252
*1446 FILLER_13_26
*1447 FILLER_13_260
*1448 FILLER_13_275
*1449 FILLER_13_279
*1450 FILLER_13_281
*1451 FILLER_13_288
*1452 FILLER_13_296
*1453 FILLER_13_3
*1454 FILLER_13_39
*1455 FILLER_13_47
*1456 FILLER_13_54
*1457 FILLER_13_57
*1458 FILLER_13_65
*1459 FILLER_13_78
*1460 FILLER_14_100
*1461 FILLER_14_11
*1462 FILLER_14_120
*1463 FILLER_14_128
*1464 FILLER_14_134
*1465 FILLER_14_141
*1466 FILLER_14_148
*1467 FILLER_14_156
*1468 FILLER_14_160
*1469 FILLER_14_17
*1470 FILLER_14_177
*1471 FILLER_14_181
*1472 FILLER_14_186
*1473 FILLER_14_193
*1474 FILLER_14_197
*1475 FILLER_14_206
*1476 FILLER_14_214
*1477 FILLER_14_222
*1478 FILLER_14_230
*1479 FILLER_14_238
*1480 FILLER_14_250
*1481 FILLER_14_253
*1482 FILLER_14_26
*1483 FILLER_14_260
*1484 FILLER_14_268
*1485 FILLER_14_274
*1486 FILLER_14_29
*1487 FILLER_14_291
*1488 FILLER_14_3
*1489 FILLER_14_35
*1490 FILLER_14_46
*1491 FILLER_14_52
*1492 FILLER_14_56
*1493 FILLER_14_64
*1494 FILLER_14_68
*1495 FILLER_14_74
*1496 FILLER_14_78
*1497 FILLER_14_82
*1498 FILLER_14_85
*1499 FILLER_14_91
*1500 FILLER_15_106
*1501 FILLER_15_113
*1502 FILLER_15_120
*1503 FILLER_15_148
*1504 FILLER_15_16
*1505 FILLER_15_161
*1506 FILLER_15_167
*1507 FILLER_15_169
*1508 FILLER_15_178
*1509 FILLER_15_191
*1510 FILLER_15_211
*1511 FILLER_15_215
*1512 FILLER_15_222
*1513 FILLER_15_225
*1514 FILLER_15_239
*1515 FILLER_15_24
*1516 FILLER_15_249
*1517 FILLER_15_257
*1518 FILLER_15_267
*1519 FILLER_15_276
*1520 FILLER_15_28
*1521 FILLER_15_281
*1522 FILLER_15_293
*1523 FILLER_15_3
*1524 FILLER_15_32
*1525 FILLER_15_39
*1526 FILLER_15_50
*1527 FILLER_15_57
*1528 FILLER_15_64
*1529 FILLER_15_72
*1530 FILLER_15_81
*1531 FILLER_15_9
*1532 FILLER_15_91
*1533 FILLER_16_108
*1534 FILLER_16_114
*1535 FILLER_16_119
*1536 FILLER_16_128
*1537 FILLER_16_138
*1538 FILLER_16_141
*1539 FILLER_16_159
*1540 FILLER_16_167
*1541 FILLER_16_171
*1542 FILLER_16_191
*1543 FILLER_16_195
*1544 FILLER_16_197
*1545 FILLER_16_203
*1546 FILLER_16_209
*1547 FILLER_16_21
*1548 FILLER_16_233
*1549 FILLER_16_25
*1550 FILLER_16_250
*1551 FILLER_16_253
*1552 FILLER_16_271
*1553 FILLER_16_279
*1554 FILLER_16_29
*1555 FILLER_16_297
*1556 FILLER_16_3
*1557 FILLER_16_52
*1558 FILLER_16_63
*1559 FILLER_16_70
*1560 FILLER_16_82
*1561 FILLER_16_85
*1562 FILLER_17_105
*1563 FILLER_17_111
*1564 FILLER_17_113
*1565 FILLER_17_124
*1566 FILLER_17_128
*1567 FILLER_17_13
*1568 FILLER_17_149
*1569 FILLER_17_157
*1570 FILLER_17_166
*1571 FILLER_17_169
*1572 FILLER_17_180
*1573 FILLER_17_188
*1574 FILLER_17_194
*1575 FILLER_17_204
*1576 FILLER_17_211
*1577 FILLER_17_221
*1578 FILLER_17_225
*1579 FILLER_17_231
*1580 FILLER_17_239
*1581 FILLER_17_246
*1582 FILLER_17_25
*1583 FILLER_17_250
*1584 FILLER_17_257
*1585 FILLER_17_265
*1586 FILLER_17_273
*1587 FILLER_17_279
*1588 FILLER_17_281
*1589 FILLER_17_294
*1590 FILLER_17_298
*1591 FILLER_17_3
*1592 FILLER_17_54
*1593 FILLER_17_57
*1594 FILLER_17_80
*1595 FILLER_17_95
*1596 FILLER_18_107
*1597 FILLER_18_113
*1598 FILLER_18_12
*1599 FILLER_18_130
*1600 FILLER_18_134
*1601 FILLER_18_138
*1602 FILLER_18_141
*1603 FILLER_18_152
*1604 FILLER_18_16
*1605 FILLER_18_160
*1606 FILLER_18_178
*1607 FILLER_18_184
*1608 FILLER_18_194
*1609 FILLER_18_197
*1610 FILLER_18_206
*1611 FILLER_18_213
*1612 FILLER_18_22
*1613 FILLER_18_233
*1614 FILLER_18_241
*1615 FILLER_18_249
*1616 FILLER_18_253
*1617 FILLER_18_262
*1618 FILLER_18_270
*1619 FILLER_18_277
*1620 FILLER_18_29
*1621 FILLER_18_297
*1622 FILLER_18_3
*1623 FILLER_18_35
*1624 FILLER_18_42
*1625 FILLER_18_55
*1626 FILLER_18_64
*1627 FILLER_18_7
*1628 FILLER_18_73
*1629 FILLER_18_82
*1630 FILLER_18_85
*1631 FILLER_19_110
*1632 FILLER_19_113
*1633 FILLER_19_120
*1634 FILLER_19_124
*1635 FILLER_19_13
*1636 FILLER_19_141
*1637 FILLER_19_161
*1638 FILLER_19_167
*1639 FILLER_19_169
*1640 FILLER_19_17
*1641 FILLER_19_174
*1642 FILLER_19_194
*1643 FILLER_19_203
*1644 FILLER_19_207
*1645 FILLER_19_216
*1646 FILLER_19_225
*1647 FILLER_19_231
*1648 FILLER_19_248
*1649 FILLER_19_256
*1650 FILLER_19_273
*1651 FILLER_19_279
*1652 FILLER_19_281
*1653 FILLER_19_290
*1654 FILLER_19_297
*1655 FILLER_19_3
*1656 FILLER_19_34
*1657 FILLER_19_45
*1658 FILLER_19_54
*1659 FILLER_19_57
*1660 FILLER_19_77
*1661 FILLER_19_97
*1662 FILLER_1_106
*1663 FILLER_1_113
*1664 FILLER_1_118
*1665 FILLER_1_126
*1666 FILLER_1_146
*1667 FILLER_1_166
*1668 FILLER_1_169
*1669 FILLER_1_191
*1670 FILLER_1_198
*1671 FILLER_1_20
*1672 FILLER_1_218
*1673 FILLER_1_225
*1674 FILLER_1_230
*1675 FILLER_1_250
*1676 FILLER_1_270
*1677 FILLER_1_277
*1678 FILLER_1_281
*1679 FILLER_1_286
*1680 FILLER_1_29
*1681 FILLER_1_293
*1682 FILLER_1_3
*1683 FILLER_1_42
*1684 FILLER_1_54
*1685 FILLER_1_57
*1686 FILLER_1_74
*1687 FILLER_1_8
*1688 FILLER_1_94
*1689 FILLER_1_98
*1690 FILLER_20_100
*1691 FILLER_20_120
*1692 FILLER_20_128
*1693 FILLER_20_138
*1694 FILLER_20_141
*1695 FILLER_20_147
*1696 FILLER_20_160
*1697 FILLER_20_166
*1698 FILLER_20_170
*1699 FILLER_20_194
*1700 FILLER_20_197
*1701 FILLER_20_208
*1702 FILLER_20_21
*1703 FILLER_20_220
*1704 FILLER_20_230
*1705 FILLER_20_237
*1706 FILLER_20_250
*1707 FILLER_20_253
*1708 FILLER_20_263
*1709 FILLER_20_27
*1710 FILLER_20_273
*1711 FILLER_20_29
*1712 FILLER_20_297
*1713 FILLER_20_3
*1714 FILLER_20_35
*1715 FILLER_20_55
*1716 FILLER_20_68
*1717 FILLER_20_76
*1718 FILLER_20_82
*1719 FILLER_20_85
*1720 FILLER_20_91
*1721 FILLER_21_102
*1722 FILLER_21_110
*1723 FILLER_21_113
*1724 FILLER_21_118
*1725 FILLER_21_138
*1726 FILLER_21_14
*1727 FILLER_21_160
*1728 FILLER_21_169
*1729 FILLER_21_180
*1730 FILLER_21_189
*1731 FILLER_21_211
*1732 FILLER_21_215
*1733 FILLER_21_221
*1734 FILLER_21_225
*1735 FILLER_21_230
*1736 FILLER_21_240
*1737 FILLER_21_249
*1738 FILLER_21_258
*1739 FILLER_21_267
*1740 FILLER_21_27
*1741 FILLER_21_275
*1742 FILLER_21_279
*1743 FILLER_21_281
*1744 FILLER_21_294
*1745 FILLER_21_298
*1746 FILLER_21_3
*1747 FILLER_21_47
*1748 FILLER_21_54
*1749 FILLER_21_57
*1750 FILLER_21_68
*1751 FILLER_21_85
*1752 FILLER_21_9
*1753 FILLER_21_92
*1754 FILLER_22_103
*1755 FILLER_22_114
*1756 FILLER_22_118
*1757 FILLER_22_128
*1758 FILLER_22_138
*1759 FILLER_22_14
*1760 FILLER_22_141
*1761 FILLER_22_147
*1762 FILLER_22_157
*1763 FILLER_22_177
*1764 FILLER_22_189
*1765 FILLER_22_195
*1766 FILLER_22_197
*1767 FILLER_22_20
*1768 FILLER_22_204
*1769 FILLER_22_217
*1770 FILLER_22_237
*1771 FILLER_22_247
*1772 FILLER_22_251
*1773 FILLER_22_253
*1774 FILLER_22_258
*1775 FILLER_22_26
*1776 FILLER_22_278
*1777 FILLER_22_282
*1778 FILLER_22_288
*1779 FILLER_22_29
*1780 FILLER_22_296
*1781 FILLER_22_3
*1782 FILLER_22_33
*1783 FILLER_22_54
*1784 FILLER_22_74
*1785 FILLER_22_82
*1786 FILLER_22_85
*1787 FILLER_22_9
*1788 FILLER_23_110
*1789 FILLER_23_113
*1790 FILLER_23_126
*1791 FILLER_23_134
*1792 FILLER_23_142
*1793 FILLER_23_151
*1794 FILLER_23_159
*1795 FILLER_23_166
*1796 FILLER_23_169
*1797 FILLER_23_174
*1798 FILLER_23_18
*1799 FILLER_23_191
*1800 FILLER_23_204
*1801 FILLER_23_208
*1802 FILLER_23_216
*1803 FILLER_23_225
*1804 FILLER_23_231
*1805 FILLER_23_255
*1806 FILLER_23_268
*1807 FILLER_23_277
*1808 FILLER_23_281
*1809 FILLER_23_29