*SPEF "ieee 1481-1999"
*DESIGN "luthor2k_top_tto"
*DATE "11:11:11 Fri 11 11, 1111"
*VENDOR "OpenRCX"
*PROGRAM "Parallel Extraction"
*VERSION "1.0"
*DESIGN_FLOW "NAME_SCOPE LOCAL" "PIN_CAP NONE"
*DIVIDER /
*DELIMITER :
*BUS_DELIMITER []
*T_UNIT 1 NS
*C_UNIT 1 PF
*R_UNIT 1 OHM
*L_UNIT 1 HENRY

*NAME_MAP
*1 io_in[0]
*2 io_in[1]
*3 io_in[2]
*4 io_in[3]
*5 io_in[4]
*6 io_in[5]
*7 io_in[6]
*8 io_in[7]
*9 io_out[0]
*10 io_out[1]
*11 net6
*12 io_out[3]
*13 io_out[4]
*14 io_out[5]
*15 io_out[6]
*16 io_out[7]
*19 _000_
*20 _001_
*21 _002_
*22 _003_
*23 _004_
*24 _005_
*25 _006_
*26 _007_
*27 _008_
*28 _009_
*29 _010_
*30 _011_
*31 _012_
*32 _013_
*33 _014_
*34 _015_
*35 _016_
*36 _017_
*37 _018_
*38 _019_
*39 _020_
*40 _021_
*41 _022_
*42 _023_
*43 _024_
*44 _025_
*45 _026_
*46 _027_
*47 _028_
*48 _029_
*49 _030_
*50 _031_
*51 _032_
*52 _033_
*53 _034_
*54 _035_
*55 _036_
*56 _037_
*57 _038_
*58 _039_
*59 _040_
*60 _041_
*61 _042_
*62 _043_
*63 _044_
*64 _045_
*65 _046_
*66 _047_
*67 _048_
*68 _049_
*69 _050_
*70 _051_
*71 _052_
*72 _053_
*73 _054_
*74 _055_
*75 _056_
*76 _057_
*77 _058_
*78 _059_
*79 _060_
*80 _061_
*81 _062_
*82 _063_
*83 _064_
*84 _065_
*85 _066_
*86 _067_
*87 _068_
*88 _069_
*89 _070_
*90 _071_
*91 _072_
*92 _073_
*93 _074_
*94 _075_
*95 _076_
*96 _077_
*97 _078_
*98 _079_
*99 _080_
*100 _081_
*101 _082_
*102 _083_
*103 _084_
*104 _085_
*105 _086_
*106 _087_
*107 _088_
*108 _089_
*109 _090_
*110 _091_
*111 _092_
*112 _093_
*113 _094_
*114 _095_
*115 _096_
*116 _097_
*117 _098_
*118 _099_
*119 _100_
*120 _101_
*121 _102_
*122 _103_
*123 _104_
*124 _105_
*125 _106_
*126 _107_
*127 _108_
*128 _109_
*129 _110_
*130 _111_
*131 _112_
*132 _113_
*133 _114_
*134 _115_
*135 _116_
*136 _117_
*137 _118_
*138 _119_
*139 _120_
*140 _121_
*141 _122_
*142 _123_
*143 _124_
*144 _125_
*145 _126_
*146 _127_
*147 _128_
*148 _129_
*149 _130_
*150 _131_
*151 _132_
*152 _133_
*153 _134_
*154 _135_
*155 _136_
*156 _137_
*157 _138_
*158 _139_
*159 _140_
*160 _141_
*161 _142_
*162 _143_
*163 _144_
*164 _145_
*165 _146_
*166 _147_
*167 _148_
*168 _149_
*169 _150_
*170 _151_
*171 _152_
*172 _153_
*173 _154_
*174 _155_
*175 _156_
*176 _157_
*177 _158_
*178 _159_
*179 _160_
*180 _161_
*181 _162_
*182 _163_
*183 _164_
*184 _165_
*185 _166_
*186 _167_
*187 _168_
*188 _169_
*189 _170_
*190 _171_
*191 _172_
*192 _173_
*193 _174_
*194 _175_
*195 _176_
*196 _177_
*197 _178_
*198 _179_
*199 _180_
*200 _181_
*201 _182_
*202 _183_
*203 _184_
*204 _185_
*205 _186_
*206 _187_
*207 _188_
*208 _189_
*209 _190_
*210 _191_
*211 _192_
*212 _193_
*213 _194_
*214 _195_
*215 _196_
*216 _197_
*217 clknet_0_io_in[0]
*218 clknet_1_0__leaf_io_in[0]
*219 clknet_1_1__leaf_io_in[0]
*220 main\.v4a3d40\.r_Bit_Index\[0\]
*221 main\.v4a3d40\.r_Bit_Index\[1\]
*222 main\.v4a3d40\.r_Bit_Index\[2\]
*223 main\.v4a3d40\.r_Clock_Count\[0\]
*224 main\.v4a3d40\.r_Clock_Count\[1\]
*225 main\.v4a3d40\.r_Clock_Count\[2\]
*226 main\.v4a3d40\.r_Clock_Count\[3\]
*227 main\.v4a3d40\.r_Clock_Count\[4\]
*228 main\.v4a3d40\.r_Clock_Count\[5\]
*229 main\.v4a3d40\.r_Clock_Count\[6\]
*230 main\.v4a3d40\.r_Clock_Count\[7\]
*231 main\.v4a3d40\.r_Rx_DV
*232 main\.v4a3d40\.r_Rx_Data
*233 main\.v4a3d40\.r_Rx_Data_R
*234 main\.v4a3d40\.r_SM_Main\[0\]
*235 main\.v4a3d40\.r_SM_Main\[1\]
*236 main\.v4a3d40\.r_SM_Main\[2\]
*237 main\.v9a0385\.ASCII_OUT\[0\]
*238 main\.v9a0385\.ASCII_OUT\[1\]
*239 main\.v9a0385\.ASCII_OUT\[2\]
*240 main\.v9a0385\.ASCII_OUT\[3\]
*241 main\.v9a0385\.ASCII_OUT\[4\]
*242 main\.v9a0385\.ASCII_OUT\[5\]
*243 main\.v9a0385\.ASCII_OUT\[6\]
*244 main\.v9a0385\.enable_numbers
*245 main\.vc9d136\.r_Bit_Index\[0\]
*246 main\.vc9d136\.r_Bit_Index\[1\]
*247 main\.vc9d136\.r_Bit_Index\[2\]
*248 main\.vc9d136\.r_SM_Main\[0\]
*249 main\.vc9d136\.r_SM_Main\[1\]
*250 main\.vc9d136\.r_SM_Main\[2\]
*251 main\.vc9d136\.r_Tx_Serial
*252 net1
*253 net2
*254 net3
*255 net4
*256 net5
*257 FILLER_0_109
*258 FILLER_0_113
*259 FILLER_0_125
*260 FILLER_0_137
*261 FILLER_0_141
*262 FILLER_0_15
*263 FILLER_0_153
*264 FILLER_0_165
*265 FILLER_0_169
*266 FILLER_0_181
*267 FILLER_0_193
*268 FILLER_0_197
*269 FILLER_0_209
*270 FILLER_0_221
*271 FILLER_0_225
*272 FILLER_0_237
*273 FILLER_0_249
*274 FILLER_0_253
*275 FILLER_0_265
*276 FILLER_0_27
*277 FILLER_0_277
*278 FILLER_0_281
*279 FILLER_0_29
*280 FILLER_0_293
*281 FILLER_0_3
*282 FILLER_0_41
*283 FILLER_0_53
*284 FILLER_0_57
*285 FILLER_0_69
*286 FILLER_0_81
*287 FILLER_0_85
*288 FILLER_0_97
*289 FILLER_10_109
*290 FILLER_10_121
*291 FILLER_10_133
*292 FILLER_10_139
*293 FILLER_10_141
*294 FILLER_10_153
*295 FILLER_10_165
*296 FILLER_10_17
*297 FILLER_10_177
*298 FILLER_10_189
*299 FILLER_10_195
*300 FILLER_10_197
*301 FILLER_10_209
*302 FILLER_10_221
*303 FILLER_10_23
*304 FILLER_10_233
*305 FILLER_10_245
*306 FILLER_10_251
*307 FILLER_10_253
*308 FILLER_10_265
*309 FILLER_10_27
*310 FILLER_10_277
*311 FILLER_10_289
*312 FILLER_10_29
*313 FILLER_10_297
*314 FILLER_10_3
*315 FILLER_10_34
*316 FILLER_10_42
*317 FILLER_10_61
*318 FILLER_10_65
*319 FILLER_10_82
*320 FILLER_10_85
*321 FILLER_10_9
*322 FILLER_10_97
*323 FILLER_11_101
*324 FILLER_11_109
*325 FILLER_11_113
*326 FILLER_11_125
*327 FILLER_11_137
*328 FILLER_11_149
*329 FILLER_11_161
*330 FILLER_11_167
*331 FILLER_11_169
*332 FILLER_11_181
*333 FILLER_11_193
*334 FILLER_11_205
*335 FILLER_11_21
*336 FILLER_11_217
*337 FILLER_11_223
*338 FILLER_11_225
*339 FILLER_11_237
*340 FILLER_11_249
*341 FILLER_11_261
*342 FILLER_11_273
*343 FILLER_11_279
*344 FILLER_11_281
*345 FILLER_11_293
*346 FILLER_11_3
*347 FILLER_11_32
*348 FILLER_11_41
*349 FILLER_11_49
*350 FILLER_11_53
*351 FILLER_11_57
*352 FILLER_11_63
*353 FILLER_11_75
*354 FILLER_11_82
*355 FILLER_11_89
*356 FILLER_12_104
*357 FILLER_12_116
*358 FILLER_12_128
*359 FILLER_12_141
*360 FILLER_12_153
*361 FILLER_12_16
*362 FILLER_12_165
*363 FILLER_12_177
*364 FILLER_12_189
*365 FILLER_12_195
*366 FILLER_12_197
*367 FILLER_12_209
*368 FILLER_12_221
*369 FILLER_12_233
*370 FILLER_12_24
*371 FILLER_12_245
*372 FILLER_12_251
*373 FILLER_12_253
*374 FILLER_12_265
*375 FILLER_12_277
*376 FILLER_12_289
*377 FILLER_12_29
*378 FILLER_12_297
*379 FILLER_12_3
*380 FILLER_12_41
*381 FILLER_12_58
*382 FILLER_12_67
*383 FILLER_12_76
*384 FILLER_12_85
*385 FILLER_12_9
*386 FILLER_13_102
*387 FILLER_13_110
*388 FILLER_13_113
*389 FILLER_13_125
*390 FILLER_13_137
*391 FILLER_13_149
*392 FILLER_13_161
*393 FILLER_13_167
*394 FILLER_13_169
*395 FILLER_13_181
*396 FILLER_13_193
*397 FILLER_13_205
*398 FILLER_13_21
*399 FILLER_13_217
*400 FILLER_13_223
*401 FILLER_13_225
*402 FILLER_13_237
*403 FILLER_13_249
*404 FILLER_13_261
*405 FILLER_13_273
*406 FILLER_13_279
*407 FILLER_13_281
*408 FILLER_13_29
*409 FILLER_13_293
*410 FILLER_13_3
*411 FILLER_13_37
*412 FILLER_13_44
*413 FILLER_13_54
*414 FILLER_13_57
*415 FILLER_13_65
*416 FILLER_13_78
*417 FILLER_13_91
*418 FILLER_13_95
*419 FILLER_14_112
*420 FILLER_14_124
*421 FILLER_14_136
*422 FILLER_14_141
*423 FILLER_14_153
*424 FILLER_14_165
*425 FILLER_14_177
*426 FILLER_14_189
*427 FILLER_14_195
*428 FILLER_14_197
*429 FILLER_14_209
*430 FILLER_14_21
*431 FILLER_14_221
*432 FILLER_14_233
*433 FILLER_14_245
*434 FILLER_14_251
*435 FILLER_14_253
*436 FILLER_14_265
*437 FILLER_14_27
*438 FILLER_14_277
*439 FILLER_14_289
*440 FILLER_14_29
*441 FILLER_14_297
*442 FILLER_14_3
*443 FILLER_14_34
*444 FILLER_14_38
*445 FILLER_14_55
*446 FILLER_14_65
*447 FILLER_14_74
*448 FILLER_14_78
*449 FILLER_14_82
*450 FILLER_14_85
*451 FILLER_14_92
*452 FILLER_15_101
*453 FILLER_15_109
*454 FILLER_15_113
*455 FILLER_15_125
*456 FILLER_15_137
*457 FILLER_15_149
*458 FILLER_15_161
*459 FILLER_15_167
*460 FILLER_15_169
*461 FILLER_15_181
*462 FILLER_15_193
*463 FILLER_15_205
*464 FILLER_15_217
*465 FILLER_15_223
*466 FILLER_15_225
*467 FILLER_15_237
*468 FILLER_15_249
*469 FILLER_15_261
*470 FILLER_15_27
*471 FILLER_15_273
*472 FILLER_15_279
*473 FILLER_15_281
*474 FILLER_15_293
*475 FILLER_15_3
*476 FILLER_15_38
*477 FILLER_15_47
*478 FILLER_15_55
*479 FILLER_15_57
*480 FILLER_15_61
*481 FILLER_15_67
*482 FILLER_15_76
*483 FILLER_15_84
*484 FILLER_15_94
*485 FILLER_16_104
*486 FILLER_16_116
*487 FILLER_16_128
*488 FILLER_16_141
*489 FILLER_16_153
*490 FILLER_16_165
*491 FILLER_16_177
*492 FILLER_16_189
*493 FILLER_16_195
*494 FILLER_16_197
*495 FILLER_16_209
*496 FILLER_16_22
*497 FILLER_16_221
*498 FILLER_16_233
*499 FILLER_16_245
*500 FILLER_16_251
*501 FILLER_16_253
*502 FILLER_16_265
*503 FILLER_16_277
*504 FILLER_16_289
*505 FILLER_16_29
*506 FILLER_16_297
*507 FILLER_16_3
*508 FILLER_16_38
*509 FILLER_16_47
*510 FILLER_16_58
*511 FILLER_16_68
*512 FILLER_16_78
*513 FILLER_16_85
*514 FILLER_16_91
*515 FILLER_17_110
*516 FILLER_17_113
*517 FILLER_17_125
*518 FILLER_17_137
*519 FILLER_17_149
*520 FILLER_17_161
*521 FILLER_17_167
*522 FILLER_17_169
*523 FILLER_17_181
*524 FILLER_17_193
*525 FILLER_17_205
*526 FILLER_17_217
*527 FILLER_17_223
*528 FILLER_17_225
*529 FILLER_17_237
*530 FILLER_17_249
*531 FILLER_17_25
*532 FILLER_17_261
*533 FILLER_17_273
*534 FILLER_17_279
*535 FILLER_17_281
*536 FILLER_17_293
*537 FILLER_17_3
*538 FILLER_17_38
*539 FILLER_17_45
*540 FILLER_17_54
*541 FILLER_17_57
*542 FILLER_17_67
*543 FILLER_17_75
*544 FILLER_17_87
*545 FILLER_17_93
*546 FILLER_18_101
*547 FILLER_18_108
*548 FILLER_18_120
*549 FILLER_18_132
*550 FILLER_18_141
*551 FILLER_18_153
*552 FILLER_18_165
*553 FILLER_18_177
*554 FILLER_18_189
*555 FILLER_18_195
*556 FILLER_18_197
*557 FILLER_18_209
*558 FILLER_18_221
*559 FILLER_18_23
*560 FILLER_18_233
*561 FILLER_18_245
*562 FILLER_18_251
*563 FILLER_18_253
*564 FILLER_18_265
*565 FILLER_18_27
*566 FILLER_18_277
*567 FILLER_18_289
*568 FILLER_18_29
*569 FILLER_18_297
*570 FILLER_18_3
*571 FILLER_18_39
*572 FILLER_18_43
*573 FILLER_18_60
*574 FILLER_18_68
*575 FILLER_18_79
*576 FILLER_18_83
*577 FILLER_18_85
*578 FILLER_18_94
*579 FILLER_19_106
*580 FILLER_19_113
*581 FILLER_19_125
*582 FILLER_19_137
*583 FILLER_19_149
*584 FILLER_19_161
*585 FILLER_19_167
*586 FILLER_19_169
*587 FILLER_19_181
*588 FILLER_19_193
*589 FILLER_19_205
*590 FILLER_19_21
*591 FILLER_19_217
*592 FILLER_19_223
*593 FILLER_19_225
*594 FILLER_19_237
*595 FILLER_19_249
*596 FILLER_19_261
*597 FILLER_19_273
*598 FILLER_19_279
*599 FILLER_19_281
*600 FILLER_19_29
*601 FILLER_19_293
*602 FILLER_19_3
*603 FILLER_19_38
*604 FILLER_19_45
*605 FILLER_19_54
*606 FILLER_19_57
*607 FILLER_19_65
*608 FILLER_19_74
*609 FILLER_19_82
*610 FILLER_19_88
*611 FILLER_19_96
*612 FILLER_1_105
*613 FILLER_1_111
*614 FILLER_1_113
*615 FILLER_1_125
*616 FILLER_1_137
*617 FILLER_1_149
*618 FILLER_1_15
*619 FILLER_1_161
*620 FILLER_1_167
*621 FILLER_1_169
*622 FILLER_1_181
*623 FILLER_1_193
*624 FILLER_1_205
*625 FILLER_1_217
*626 FILLER_1_223
*627 FILLER_1_225
*628 FILLER_1_237
*629 FILLER_1_249
*630 FILLER_1_261
*631 FILLER_1_27
*632 FILLER_1_273
*633 FILLER_1_279
*634 FILLER_1_281
*635 FILLER_1_293
*636 FILLER_1_3
*637 FILLER_1_39
*638 FILLER_1_51
*639 FILLER_1_55
*640 FILLER_1_57
*641 FILLER_1_69
*642 FILLER_1_81
*643 FILLER_1_93
*644 FILLER_20_10
*645 FILLER_20_100
*646 FILLER_20_112
*647 FILLER_20_124
*648 FILLER_20_136
*649 FILLER_20_141
*650 FILLER_20_153
*651 FILLER_20_165
*652 FILLER_20_177
*653 FILLER_20_189
*654 FILLER_20_195
*655 FILLER_20_197
*656 FILLER_20_209
*657 FILLER_20_22
*658 FILLER_20_221
*659 FILLER_20_233
*660 FILLER_20_245
*661 FILLER_20_251
*662 FILLER_20_253
*663 FILLER_20_265
*664 FILLER_20_277
*665 FILLER_20_289
*666 FILLER_20_29
*667 FILLER_20_297
*668 FILLER_20_3
*669 FILLER_20_38
*670 FILLER_20_51
*671 FILLER_20_55
*672 FILLER_20_65
*673 FILLER_20_72
*674 FILLER_20_82
*675 FILLER_20_85
*676 FILLER_21_100
*677 FILLER_21_113
*678 FILLER_21_12
*679 FILLER_21_125
*680 FILLER_21_137
*681 FILLER_21_149
*682 FILLER_21_161
*683 FILLER_21_167
*684 FILLER_21_169
*685 FILLER_21_181
*686 FILLER_21_193
*687 FILLER_21_205
*688 FILLER_21_217
*689 FILLER_21_223
*690 FILLER_21_225
*691 FILLER_21_237
*692 FILLER_21_249
*693 FILLER_21_26
*694 FILLER_21_261
*695 FILLER_21_273
*696 FILLER_21_279
*697 FILLER_21_281
*698 FILLER_21_293
*699 FILLER_21_3
*700 FILLER_21_54
*701 FILLER_21_57
*702 FILLER_21_7
*703 FILLER_21_75
*704 FILLER_21_88
*705 FILLER_22_103
*706 FILLER_22_115
*707 FILLER_22_127
*708 FILLER_22_139
*709 FILLER_22_141
*710 FILLER_22_153
*711 FILLER_22_165
*712 FILLER_22_177
*713 FILLER_22_189
*714 FILLER_22_195
*715 FILLER_22_197
*716 FILLER_22_209
*717 FILLER_22_21
*718 FILLER_22_221
*719 FILLER_22_233
*720 FILLER_22_245
*721 FILLER_22_251
*722 FILLER_22_253
*723 FILLER_22_265
*724 FILLER_22_27
*725 FILLER_22_277
*726 FILLER_22_289
*727 FILLER_22_29
*728 FILLER_22_297
*729 FILLER_22_3
*730 FILLER_22_37
*731 FILLER_22_47
*732 FILLER_22_54
*733 FILLER_22_66
*734 FILLER_22_74
*735 FILLER_22_81
*736 FILLER_22_85
*737 FILLER_22_96
*738 FILLER_23_109
*739 FILLER_23_113
*740 FILLER_23_125
*741 FILLER_23_137
*742 FILLER_23_149
*743 FILLER_23_15
*744 FILLER_23_161
*745 FILLER_23_167
*746 FILLER_23_169
*747 FILLER_23_181
*748 FILLER_23_193
*749 FILLER_23_205
*750 FILLER_23_217
*751 FILLER_23_223
*752 FILLER_23_225
*753 FILLER_23_237
*754 FILLER_23_249
*755 FILLER_23_261
*756 FILLER_23_273
*757 FILLER_23_279
*758 FILLER_23_281
*759 FILLER_23_293
*760 FILLER_23_3
*761 FILLER_23_35
*762 FILLER_23_48
*763 FILLER_23_57
*764 FILLER_23_64
*765 FILLER_23_75
*766 FILLER_23_81
*767 FILLER_23_89
*768 FILLER_24_114
*769 FILLER_24_126
*770 FILLER_24_138
*771 FILLER_24_141
*772 FILLER_24_153
*773 FILLER_24_165
*774 FILLER_24_177
*775 FILLER_24_189
*776 FILLER_24_195
*777 FILLER_24_197
*778 FILLER_24_209
*779 FILLER_24_21
*780 FILLER_24_221
*781 FILLER_24_233
*782 FILLER_24_245
*783 FILLER_24_251
*784 FILLER_24_253
*785 FILLER_24_265
*786 FILLER_24_27
*787 FILLER_24_277
*788 FILLER_24_289
*789 FILLER_24_29
*790 FILLER_24_297
*791 FILLER_24_3
*792 FILLER_24_37
*793 FILLER_24_56
*794 FILLER_24_60
*795 FILLER_24_78
*796 FILLER_24_85
*797 FILLER_24_89
*798 FILLER_24_93
*799 FILLER_25_103
*800 FILLER_25_111
*801 FILLER_25_113
*802 FILLER_25_125
*803 FILLER_25_137
*804 FILLER_25_149
*805 FILLER_25_161
*806 FILLER_25_167
*807 FILLER_25_169
*808 FILLER_25_17
*809 FILLER_25_181
*810 FILLER_25_193
*811 FILLER_25_205
*812 FILLER_25_217
*813 FILLER_25_223
*814 FILLER_25_225
*815 FILLER_25_237
*816 FILLER_25_249
*817 FILLER_25_261
*818 FILLER_25_273
*819 FILLER_25_279
*820 FILLER_25_281
*821 FILLER_25_293
*822 FILLER_25_3
*823 FILLER_25_34
*824 FILLER_25_54
*825 FILLER_25_57
*826 FILLER_25_61
*827 FILLER_25_69
*828 FILLER_25_73
*829 FILLER_25_81
*830 FILLER_25_9
*831 FILLER_25_92
*832 FILLER_26_100
*833 FILLER_26_112
*834 FILLER_26_124
*835 FILLER_26_136
*836 FILLER_26_141
*837 FILLER_26_15
*838 FILLER_26_153
*839 FILLER_26_165
*840 FILLER_26_177
*841 FILLER_26_189
*842 FILLER_26_195
*843 FILLER_26_197
*844 FILLER_26_209
*845 FILLER_26_221
*846 FILLER_26_233
*847 FILLER_26_245
*848 FILLER_26_25
*849 FILLER_26_251
*850 FILLER_26_253
*851 FILLER_26_265
*852 FILLER_26_277
*853 FILLER_26_289
*854 FILLER_26_29
*855 FILLER_26_297
*856 FILLER_26_3
*857 FILLER_26_34
*858 FILLER_26_42
*859 FILLER_26_47
*860 FILLER_26_71
*861 FILLER_26_83
*862 FILLER_26_85
*863 FILLER_26_93
*864 FILLER_27_100
*865 FILLER_27_109
*866 FILLER_27_113
*867 FILLER_27_125
*868 FILLER_27_137
*869 FILLER_27_149
*870 FILLER_27_15
*871 FILLER_27_161
*872 FILLER_27_167
*873 FILLER_27_169
*874 FILLER_27_181
*875 FILLER_27_193
*876 FILLER_27_205
*877 FILLER_27_217
*878 FILLER_27_223
*879 FILLER_27_225
*880 FILLER_27_237
*881 FILLER_27_249
*882 FILLER_27_261
*883 FILLER_27_273
*884 FILLER_27_279
*885 FILLER_27_281
*886 FILLER_27_29
*887 FILLER_27_293
*888 FILLER_27_3
*889 FILLER_27_33
*890 FILLER_27_51
*891 FILLER_27_55
*892 FILLER_27_57
*893 FILLER_27_69
*894 FILLER_27_73
*895 FILLER_27_90
*896 FILLER_28_104
*897 FILLER_28_116
*898 FILLER_28_128
*899 FILLER_28_13
*900 FILLER_28_141
*901 FILLER_28_153
*902 FILLER_28_165
*903 FILLER_28_177
*904 FILLER_28_189
*905 FILLER_28_195
*906 FILLER_28_197
*907 FILLER_28_209
*908 FILLER_28_221
*909 FILLER_28_233
*910 FILLER_28_245
*911 FILLER_28_251
*912 FILLER_28_253
*913 FILLER_28_26
*914 FILLER_28_265
*915 FILLER_28_277
*916 FILLER_28_289
*917 FILLER_28_29
*918 FILLER_28_297
*919 FILLER_28_3
*920 FILLER_28_40
*921 FILLER_28_53
*922 FILLER_28_76
*923 FILLER_28_85
*924 FILLER_28_9
*925 FILLER_28_94
*926 FILLER_29_102
*927 FILLER_29_110
*928 FILLER_29_113
*929 FILLER_29_125
*930 FILLER_29_137
*931 FILLER_29_149
*932 FILLER_29_161
*933 FILLER_29_167
*934 FILLER_29_169
*935 FILLER_29_17
*936 FILLER_29_181
*937 FILLER_29_193
*938 FILLER_29_205
*939 FILLER_29_217
*940 FILLER_29_223
*941 FILLER_29_225
*942 FILLER_29_237
*943 FILLER_29_249
*944 FILLER_29_261
*945 FILLER_29_27
*946 FILLER_29_273
*947 FILLER_29_279
*948 FILLER_29_281
*949 FILLER_29_293
*950 FILLER_29_3
*951 FILLER_29_33
*952 FILLER_29_37
*953 FILLER_29_41
*954 FILLER_29_45
*955 FILLER_29_54
*956 FILLER_29_57
*957 FILLER_29_74
*958 FILLER_29_81
*959 FILLER_29_85
*960 FILLER_29_95
*961 FILLER_2_109
*962 FILLER_2_121
*963 FILLER_2_133
*964 FILLER_2_139
*965 FILLER_2_141
*966 FILLER_2_15
*967 FILLER_2_153
*968 FILLER_2_165
*969 FILLER_2_177
*970 FILLER_2_189
*971 FILLER_2_195
*972 FILLER_2_197
*973 FILLER_2_209
*974 FILLER_2_221
*975 FILLER_2_233
*976 FILLER_2_245
*977 FILLER_2_251
*978 FILLER_2_253
*979 FILLER_2_265
*980 FILLER_2_27
*981 FILLER_2_277
*982 FILLER_2_289
*983 FILLER_2_29
*984 FILLER_2_297
*985 FILLER_2_3
*986 FILLER_2_41
*987 FILLER_2_53
*988 FILLER_2_65
*989 FILLER_2_77
*990 FILLER_2_83
*991 FILLER_2_85
*992 FILLER_2_97
*993 FILLER_30_110
*994 FILLER_30_12
*995 FILLER_30_122
*996 FILLER_30_134
*997 FILLER_30_141
*998 FILLER_30_153
*999 FILLER_30_165
*1000 FILLER_30_177
*1001 FILLER_30_18
*1002 FILLER_30_189
*1003 FILLER_30_195
*1004 FILLER_30_197
*1005 FILLER_30_209
*1006 FILLER_30_221
*1007 FILLER_30_233
*1008 FILLER_30_245
*1009 FILLER_30_251
*1010 FILLER_30_253
*1011 FILLER_30_26
*1012 FILLER_30_265
*1013 FILLER_30_277
*1014 FILLER_30_289
*1015 FILLER_30_29
*1016 FILLER_30_297
*1017 FILLER_30_3
*1018 FILLER_30_36
*1019 FILLER_30_44
*1020 FILLER_30_55
*1021 FILLER_30_63
*1022 FILLER_30_69
*1023 FILLER_30_77
*1024 FILLER_30_81
*1025 FILLER_30_85
*1026 FILLER_30_90
*1027 FILLER_31_109
*1028 FILLER_31_113
*1029 FILLER_31_125
*1030 FILLER_31_137
*1031 FILLER_31_149
*1032 FILLER_31_16
*1033 FILLER_31_161
*1034 FILLER_31_167
*1035 FILLER_31_169
*1036 FILLER_31_181
*1037 FILLER_31_193
*1038 FILLER_31_205
*1039 FILLER_31_217
*1040 FILLER_31_223
*1041 FILLER_31_225
*1042 FILLER_31_237
*1043 FILLER_31_249
*1044 FILLER_31_26
*1045 FILLER_31_261
*1046 FILLER_31_273
*1047 FILLER_31_279
*1048 FILLER_31_281
*1049 FILLER_31_293
*1050 FILLER_31_3
*1051 FILLER_31_38
*1052 FILLER_31_44
*1053 FILLER_31_52
*1054 FILLER_31_57
*1055 FILLER_31_65
*1056 FILLER_31_72
*1057 FILLER_31_81
*1058 FILLER_31_89
*1059 FILLER_31_97
*1060 FILLER_32_101
*1061 FILLER_32_109
*1062 FILLER_32_121
*1063 FILLER_32_13
*1064 FILLER_32_133
*1065 FILLER_32_139
*1066 FILLER_32_141
*1067 FILLER_32_153
*1068 FILLER_32_165
*1069 FILLER_32_177
*1070 FILLER_32_189
*1071 FILLER_32_195
*1072 FILLER_32_197
*1073 FILLER_32_209
*1074 FILLER_32_221
*1075 FILLER_32_233
*1076 FILLER_32_245
*1077 FILLER_32_251
*1078 FILLER_32_253
*1079 FILLER_32_26
*1080 FILLER_32_265
*1081 FILLER_32_277
*1082 FILLER_32_289
*1083 FILLER_32_29
*1084 FILLER_32_297
*1085 FILLER_32_3
*1086 FILLER_32_44
*1087 FILLER_32_48
*1088 FILLER_32_56
*1089 FILLER_32_64
*1090 FILLER_32_7
*1091 FILLER_32_77
*1092 FILLER_32_83
*1093 FILLER_32_85
*1094 FILLER_32_92
*1095 FILLER_33_105
*1096 FILLER_33_111
*1097 FILLER_33_113
*1098 FILLER_33_125
*1099 FILLER_33_137
*1100 FILLER_33_149
*1101 FILLER_33_16
*1102 FILLER_33_161
*1103 FILLER_33_167
*1104 FILLER_33_169
*1105 FILLER_33_181
*1106 FILLER_33_193
*1107 FILLER_33_205
*1108 FILLER_33_217
*1109 FILLER_33_223
*1110 FILLER_33_225
*1111 FILLER_33_237
*1112 FILLER_33_24
*1113 FILLER_33_249
*1114 FILLER_33_261
*1115 FILLER_33_273
*1116 FILLER_33_279
*1117 FILLER_33_281
*1118 FILLER_33_293
*1119 FILLER_33_3
*1120 FILLER_33_31
*1121 FILLER_33_43
*1122 FILLER_33_54
*1123 FILLER_33_57
*1124 FILLER_33_64
*1125 FILLER_33_7
*1126 FILLER_33_77
*1127 FILLER_33_85
*1128 FILLER_34_108
*1129 FILLER_34_12
*1130 FILLER_34_120
*1131 FILLER_34_132
*1132 FILLER_34_141
*1133 FILLER_34_153
*1134 FILLER_34_16
*1135 FILLER_34_165
*1136 FILLER_34_177
*1137 FILLER_34_189
*1138 FILLER_34_195
*1139 FILLER_34_197
*1140 FILLER_34_209
*1141 FILLER_34_221
*1142 FILLER_34_23
*1143 FILLER_34_233
*1144 FILLER_34_245
*1145 FILLER_34_251
*1146 FILLER_34_253
*1147 FILLER_34_265
*1148 FILLER_34_27
*1149 FILLER_34_277
*1150 FILLER_34_289
*1151 FILLER_34_29
*1152 FILLER_34_297
*1153 FILLER_34_3
*1154 FILLER_34_52
*1155 FILLER_34_64
*1156 FILLER_34_68
*1157 FILLER_34_78
*1158 FILLER_34_85
*1159 FILLER_34_96
*1160 FILLER_35_104
*1161 FILLER_35_113
*1162 FILLER_35_125
*1163 FILLER_35_13
*1164 FILLER_35_137
*1165 FILLER_35_149
*1166 FILLER_35_161
*1167 FILLER_35_167
*1168 FILLER_35_169
*1169 FILLER_35_181
*1170 FILLER_35_193
*1171 FILLER_35_205
*1172 FILLER_35_21
*1173 FILLER_35_217
*1174 FILLER_35_223
*1175 FILLER_35_225
*1176 FILLER_35_237
*1177 FILLER_35_249
*1178 FILLER_35_261
*1179 FILLER_35_273
*1180 FILLER_35_279
*1181 FILLER_35_28
*1182 FILLER_35_281
*1183 FILLER_35_293
*1184 FILLER_35_3
*1185 FILLER_35_40
*1186 FILLER_35_53
*1187 FILLER_35_57
*1188 FILLER_35_67
*1189 FILLER_35_74
*1190 FILLER_35_80
*1191 FILLER_35_84
*1192 FILLER_35_88
*1193 FILLER_35_92
*1194 FILLER_36_106
*1195 FILLER_36_118
*1196 FILLER_36_12
*1197 FILLER_36_130
*1198 FILLER_36_138
*1199 FILLER_36_141
*1200 FILLER_36_153
*1201 FILLER_36_165
*1202 FILLER_36_177
*1203 FILLER_36_189
*1204 FILLER_36_195
*1205 FILLER_36_197
*1206 FILLER_36_209
*1207 FILLER_36_221
*1208 FILLER_36_233
*1209 FILLER_36_245
*1210 FILLER_36_251
*1211 FILLER_36_253
*1212 FILLER_36_26
*1213 FILLER_36_265
*1214 FILLER_36_277
*1215 FILLER_36_289
*1216 FILLER_36_29
*1217 FILLER_36_297
*1218 FILLER_36_3
*1219 FILLER_36_34
*1220 FILLER_36_40
*1221 FILLER_36_49
*1222 FILLER_36_62
*1223 FILLER_36_72
*1224 FILLER_36_85
*1225 FILLER_37_108
*1226 FILLER_37_113
*1227 FILLER_37_125
*1228 FILLER_37_137
*1229 FILLER_37_149
*1230 FILLER_37_161
*1231 FILLER_37_167
*1232 FILLER_37_169
*1233 FILLER_37_181
*1234 FILLER_37_193
*1235 FILLER_37_20
*1236 FILLER_37_205
*1237 FILLER_37_217
*1238 FILLER_37_223
*1239 FILLER_37_225
*1240 FILLER_37_237
*1241 FILLER_37_249
*1242 FILLER_37_261
*1243 FILLER_37_273
*1244 FILLER_37_279
*1245 FILLER_37_281
*1246 FILLER_37_293
*1247 FILLER_37_3
*1248 FILLER_37_32
*1249 FILLER_37_42
*1250 FILLER_37_50
*1251 FILLER_37_54
*1252 FILLER_37_57
*1253 FILLER_37_8
*1254 FILLER_37_84
*1255 FILLER_37_96
*1256 FILLER_38_109
*1257 FILLER_38_121
*1258 FILLER_38_133
*1259 FILLER_38_139
*1260 FILLER_38_141
*1261 FILLER_38_153
*1262 FILLER_38_165
*1263 FILLER_38_177
*1264 FILLER_38_18
*1265 FILLER_38_189
*1266 FILLER_38_195
*1267 FILLER_38_197
*1268 FILLER_38_209
*1269 FILLER_38_221
*1270 FILLER_38_233
*1271 FILLER_38_245
*1272 FILLER_38_251
*1273 FILLER_38_253
*1274 FILLER_38_26
*1275 FILLER_38_265
*1276 FILLER_38_277
*1277 FILLER_38_289
*1278 FILLER_38_29
*1279 FILLER_38_297
*1280 FILLER_38_3
*1281 FILLER_38_39
*1282 FILLER_38_46
*1283 FILLER_38_57
*1284 FILLER_38_64
*1285 FILLER_38_72
*1286 FILLER_38_79
*1287 FILLER_38_8
*1288 FILLER_38_83
*1289 FILLER_38_85
*1290 FILLER_38_97
*1291 FILLER_39_110
*1292 FILLER_39_113
*1293 FILLER_39_125
*1294 FILLER_39_137
*1295 FILLER_39_149
*1296 FILLER_39_16
*1297 FILLER_39_161
*1298 FILLER_39_167
*1299 FILLER_39_169
*1300 FILLER_39_181
*1301 FILLER_39_193
*1302 FILLER_39_20
*1303 FILLER_39_205
*1304 FILLER_39_217
*1305 FILLER_39_223
*1306 FILLER_39_225
*1307 FILLER_39_237
*1308 FILLER_39_249
*1309 FILLER_39_261
*1310 FILLER_39_273
*1311 FILLER_39_279
*1312 FILLER_39_281
*1313 FILLER_39_29
*1314 FILLER_39_293
*1315 FILLER_39_3
*1316 FILLER_39_40
*1317 FILLER_39_46
*1318 FILLER_39_54
*1319 FILLER_39_57
*1320 FILLER_39_63
*1321 FILLER_39_86
*1322 FILLER_39_98
*1323 FILLER_3_105
*1324 FILLER_3_111
*1325 FILLER_3_113
*1326 FILLER_3_125
*1327 FILLER_3_137
*1328 FILLER_3_149
*1329 FILLER_3_15
*1330 FILLER_3_161
*1331 FILLER_3_167
*1332 FILLER_3_169
*1333 FILLER_3_181
*1334 FILLER_3_193
*1335 FILLER_3_205
*1336 FILLER_3_217
*1337 FILLER_3_223
*1338 FILLER_3_225
*1339 FILLER_3_237
*1340 FILLER_3_249
*1341 FILLER_3_261
*1342 FILLER_3_27
*1343 FILLER_3_273
*1344 FILLER_3_279
*1345 FILLER_3_281
*1346 FILLER_3_293
*1347 FILLER_3_3
*1348 FILLER_3_39
*1349 FILLER_3_51
*1350 FILLER_3_55
*1351 FILLER_3_57
*1352 FILLER_3_69
*1353 FILLER_3_81
*1354 FILLER_3_93
*1355 FILLER_40_109
*1356 FILLER_40_12
*1357 FILLER_40_121
*1358 FILLER_40_133
*1359 FILLER_40_139
*1360 FILLER_40_141
*1361 FILLER_40_153
*1362 FILLER_40_165
*1363 FILLER_40_177
*1364 FILLER_40_189
*1365 FILLER_40_195
*1366 FILLER_40_197
*1367 FILLER_40_20
*1368 FILLER_40_209
*1369 FILLER_40_221
*1370 FILLER_40_233
*1371 FILLER_40_245
*1372 FILLER_40_251
*1373 FILLER_40_253
*1374 FILLER_40_265
*1375 FILLER_40_277
*1376 FILLER_40_289
*1377 FILLER_40_29
*1378 FILLER_40_297
*1379 FILLER_40_3
*1380 FILLER_40_41
*1381 FILLER_40_45
*1382 FILLER_40_49
*1383 FILLER_40_55
*1384 FILLER_40_60
*1385 FILLER_40_64
*1386 FILLER_40_7
*1387 FILLER_40_82
*1388 FILLER_40_85
*1389 FILLER_40_97
*1390 FILLER_41_110
*1391 FILLER_41_113
*1392 FILLER_41_125
*1393 FILLER_41_137
*1394 FILLER_41_149
*1395 FILLER_41_161
*1396 FILLER_41_167
*1397 FILLER_41_169
*1398 FILLER_41_17
*1399 FILLER_41_181
*1400 FILLER_41_193
*1401 FILLER_41_205
*1402 FILLER_41_217
*1403 FILLER_41_223
*1404 FILLER_41_225
*1405 FILLER_41_237
*1406 FILLER_41_249
*1407 FILLER_41_261
*1408 FILLER_41_273
*1409 FILLER_41_279
*1410 FILLER_41_28
*1411 FILLER_41_281
*1412 FILLER_41_293
*1413 FILLER_41_3
*1414 FILLER_41_36
*1415 FILLER_41_45
*1416 FILLER_41_54
*1417 FILLER_41_57
*1418 FILLER_41_67
*1419 FILLER_41_74
*1420 FILLER_41_86
*1421 FILLER_41_9
*1422 FILLER_41_98
*1423 FILLER_42_109
*1424 FILLER_42_121
*1425 FILLER_42_133
*1426 FILLER_42_139
*1427 FILLER_42_141
*1428 FILLER_42_153
*1429 FILLER_42_165
*1430 FILLER_42_17
*1431 FILLER_42_177
*1432 FILLER_42_189
*1433 FILLER_42_195
*1434 FILLER_42_197
*1435 FILLER_42_209
*1436 FILLER_42_221
*1437 FILLER_42_233
*1438 FILLER_42_245
*1439 FILLER_42_251
*1440 FILLER_42_253
*1441 FILLER_42_26
*1442 FILLER_42_265
*1443 FILLER_42_277
*1444 FILLER_42_289
*1445 FILLER_42_29
*1446 FILLER_42_297
*1447 FILLER_42_3
*1448 FILLER_42_48
*1449 FILLER_42_54
*1450 FILLER_42_62
*1451 FILLER_42_74
*1452 FILLER_42_82
*1453 FILLER_42_85
*1454 FILLER_42_9
*1455 FILLER_42_97
*1456 FILLER_43_105
*1457 FILLER_43_111
*1458 FILLER_43_113
*1459 FILLER_43_125
*1460 FILLER_43_137
*1461 FILLER_43_149
*1462 FILLER_43_161
*1463 FILLER_43_167
*1464 FILLER_43_169
*1465 FILLER_43_181
*1466 FILLER_43_193
*1467 FILLER_43_20
*1468 FILLER_43_205
*1469 FILLER_43_217
*1470 FILLER_43_223
*1471 FILLER_43_225
*1472 FILLER_43_237
*1473 FILLER_43_249
*1474 FILLER_43_26
*1475 FILLER_43_261
*1476 FILLER_43_273
*1477 FILLER_43_279
*1478 FILLER_43_281
*1479 FILLER_43_293
*1480 FILLER_43_3
*1481 FILLER_43_38
*1482 FILLER_43_50
*1483 FILLER_43_57
*1484 FILLER_43_69
*1485 FILLER_43_8
*1486 FILLER_43_81
*1487 FILLER_43_93
*1488 FILLER_44_109
*1489 FILLER_44_121
*1490 FILLER_44_133
*1491 FILLER_44_139
*1492 FILLER_44_141
*1493 FILLER_44_15
*1494 FILLER_44_153
*1495 FILLER_44_165
*1496 FILLER_44_177
*1497 FILLER_44_189
*1498 FILLER_44_195
*1499 FILLER_44_197
*1500 FILLER_44_209
*1501 FILLER_44_221
*1502 FILLER_44_233
*1503 FILLER_44_245
*1504 FILLER_44_251
*1505 FILLER_44_253
*1506 FILLER_44_265
*1507 FILLER_44_27
*1508 FILLER_44_277
*1509 FILLER_44_289
*1510 FILLER_44_29
*1511 FILLER_44_297
*1512 FILLER_44_3
*1513 FILLER_44_41
*1514 FILLER_44_53
*1515 FILLER_44_65
*1516 FILLER_44_77
*1517 FILLER_44_83
*1518 FILLER_44_85
*1519 FILLER_44_97
*1520 FILLER_45_105
*1521 FILLER_45_111
*1522 FILLER_45_113
*1523 FILLER_45_125
*1524 FILLER_45_137
*1525 FILLER_45_149
*1526 FILLER_45_15
*1527 FILLER_45_161
*1528 FILLER_45_167
*1529 FILLER_45_169
*1530 FILLER_45_181
*1531 FILLER_45_193
*1532 FILLER_45_205
*1533 FILLER_45_217
*1534 FILLER_45_223
*1535 FILLER_45_225
*1536 FILLER_45_237
*1537 FILLER_45_249
*1538 FILLER_45_261
*1539 FILLER_45_27
*1540 FILLER_45_273
*1541 FILLER_45_279
*1542 FILLER_45_281
*1543 FILLER_45_293
*1544 FILLER_45_3
*1545 FILLER_45_39
*1546 FILLER_45_51
*1547 FILLER_45_55
*1548 FILLER_45_57
*1549 FILLER_45_69
*1550 FILLER_45_81
*1551 FILLER_45_93
*1552 FILLER_46_109
*1553 FILLER_46_121
*1554 FILLER_46_133
*1555 FILLER_46_139
*1556 FILLER_46_141
*1557 FILLER_46_15
*1558 FILLER_46_153
*1559 FILLER_46_165
*1560 FILLER_46_177
*1561 FILLER_46_189
*1562 FILLER_46_195
*1563 FILLER_46_197
*1564 FILLER_46_209
*1565 FILLER_46_221
*1566 FILLER_46_233
*1567 FILLER_46_245
*1568 FILLER_46_251
*1569 FILLER_46_253
*1570 FILLER_46_265
*1571 FILLER_46_27
*1572 FILLER_46_277
*1573 FILLER_46_289
*1574 FILLER_46_29
*1575 FILLER_46_297
*1576 FILLER_46_3
*1577 FILLER_46_41
*1578 FILLER_46_53
*1579 FILLER_46_65
*1580 FILLER_46_77
*1581 FILLER_46_83
*1582 FILLER_46_85
*1583 FILLER_46_97
*1584 FILLER_47_105
*1585 FILLER_47_111
*1586 FILLER_47_113
*1587 FILLER_47_125
*1588 FILLER_47_137
*1589 FILLER_47_149
*1590 FILLER_47_15
*1591 FILLER_47_161
*1592 FILLER_47_167
*1593 FILLER_47_169
*1594 FILLER_47_181
*1595 FILLER_47_193
*1596 FILLER_47_205
*1597 FILLER_47_217
*1598 FILLER_47_223
*1599 FILLER_47_225
*1600 FILLER_47_237
*1601 FILLER_47_249
*1602 FILLER_47_261
*1603 FILLER_47_27
*1604 FILLER_47_273
*1605 FILLER_47_279
*1606 FILLER_47_281
*1607 FILLER_47_293
*1608 FILLER_47_3
*1609 FILLER_47_39
*1610 FILLER_47_51
*1611 FILLER_47_55
*1612 FILLER_47_57
*1613 FILLER_47_69
*1614 FILLER_47_81
*1615 FILLER_47_93
*1616 FILLER_48_109
*1617 FILLER_48_121
*1618 FILLER_48_133
*1619 FILLER_48_139
*1620 FILLER_48_141
*1621 FILLER_48_15
*1622 FILLER_48_153
*1623 FILLER_48_165
*1624 FILLER_48_177
*1625 FILLER_48_189
*1626 FILLER_48_195
*1627 FILLER_48_197
*1628 FILLER_48_209
*1629 FILLER_48_221
*1630 FILLER_48_233
*1631 FILLER_48_245