*SPEF "ieee 1481-1999"
*DESIGN "maheredia_arbiter_game"
*DATE "11:11:11 Fri 11 11, 1111"
*VENDOR "OpenRCX"
*PROGRAM "Parallel Extraction"
*VERSION "1.0"
*DESIGN_FLOW "NAME_SCOPE LOCAL" "PIN_CAP NONE"
*DIVIDER /
*DELIMITER :
*BUS_DELIMITER []
*T_UNIT 1 NS
*C_UNIT 1 PF
*R_UNIT 1 OHM
*L_UNIT 1 HENRY

*NAME_MAP
*1 io_in[0]
*2 io_in[1]
*3 io_in[2]
*4 io_in[3]
*5 io_in[4]
*6 io_in[5]
*7 io_in[6]
*8 io_in[7]
*9 io_out[0]
*10 io_out[1]
*11 io_out[2]
*12 io_out[3]
*13 net4
*14 net5
*15 net6
*16 net7
*19 _000_
*20 _001_
*21 _002_
*22 _003_
*23 _004_
*24 _005_
*25 _006_
*26 _007_
*27 _008_
*28 _009_
*29 _010_
*30 _011_
*31 _012_
*32 _013_
*33 _014_
*34 _015_
*35 _016_
*36 _017_
*37 _018_
*38 _019_
*39 _020_
*40 _021_
*41 _022_
*42 _023_
*43 _024_
*44 _025_
*45 _026_
*46 _027_
*47 _028_
*48 _029_
*49 _030_
*50 _031_
*51 _032_
*52 _033_
*53 _034_
*54 _035_
*55 _036_
*56 _037_
*57 _038_
*58 _039_
*59 _040_
*60 _041_
*61 _042_
*62 _043_
*63 _044_
*64 _045_
*65 _046_
*66 _047_
*67 _048_
*68 _049_
*69 _050_
*70 _051_
*71 _052_
*72 _053_
*73 _054_
*74 _055_
*75 _056_
*76 _057_
*77 _058_
*78 _059_
*79 _060_
*80 _061_
*81 _062_
*82 _063_
*83 _064_
*84 _065_
*85 _066_
*86 _067_
*87 _068_
*88 _069_
*89 _070_
*90 _071_
*91 _072_
*92 _073_
*93 _074_
*94 _075_
*95 _076_
*96 _077_
*97 _078_
*98 _079_
*99 _080_
*100 _081_
*101 _082_
*102 _083_
*103 _084_
*104 _085_
*105 _086_
*106 _087_
*107 _088_
*108 _089_
*109 _090_
*110 _091_
*111 _092_
*112 _093_
*113 _094_
*114 _095_
*115 _096_
*116 _097_
*117 _098_
*118 _099_
*119 _100_
*120 _101_
*121 _102_
*122 _103_
*123 _104_
*124 _105_
*125 _106_
*126 _107_
*127 _108_
*128 _109_
*129 _110_
*130 _111_
*131 _112_
*132 _113_
*133 _114_
*134 _115_
*135 _116_
*136 _117_
*137 _118_
*138 _119_
*139 _120_
*140 _121_
*141 _122_
*142 _123_
*143 _124_
*144 _125_
*145 _126_
*146 _127_
*147 _128_
*148 _129_
*149 _130_
*150 _131_
*151 _132_
*152 _133_
*153 _134_
*154 _135_
*155 _136_
*156 _137_
*157 _138_
*158 _139_
*159 _140_
*160 _141_
*161 _142_
*162 _143_
*163 _144_
*164 _145_
*165 _146_
*166 _147_
*167 _148_
*168 _149_
*169 _150_
*170 _151_
*171 _152_
*172 _153_
*173 _154_
*174 _155_
*175 _156_
*176 _157_
*177 _158_
*178 _159_
*179 _160_
*180 _161_
*181 _162_
*182 _163_
*183 _164_
*184 _165_
*185 _166_
*186 _167_
*187 _168_
*188 _169_
*189 _170_
*190 _171_
*191 _172_
*192 _173_
*193 _174_
*194 _175_
*195 _176_
*196 _177_
*197 _178_
*198 _179_
*199 _180_
*200 _181_
*201 _182_
*202 _183_
*203 _184_
*204 _185_
*205 _186_
*206 _187_
*207 _188_
*208 _189_
*209 _190_
*210 _191_
*211 _192_
*212 _193_
*213 _194_
*214 _195_
*215 _196_
*216 _197_
*217 _198_
*218 _199_
*219 _200_
*220 _201_
*221 _202_
*222 _203_
*223 _204_
*224 _205_
*225 _206_
*226 _207_
*227 _208_
*228 _209_
*229 _210_
*230 _211_
*231 _212_
*232 _213_
*233 _214_
*234 _215_
*235 clknet_0_io_in[0]
*236 clknet_2_0__leaf_io_in[0]
*237 clknet_2_1__leaf_io_in[0]
*238 clknet_2_2__leaf_io_in[0]
*239 clknet_2_3__leaf_io_in[0]
*240 net1
*241 net2
*242 net3
*243 u_arbiter_game\.cd_done
*244 u_arbiter_game\.cd_leds_o\[0\]
*245 u_arbiter_game\.cd_leds_o\[1\]
*246 u_arbiter_game\.cd_leds_o\[2\]
*247 u_arbiter_game\.cd_leds_o\[3\]
*248 u_arbiter_game\.fsm\.next_state\[0\]
*249 u_arbiter_game\.fsm\.next_state\[1\]
*250 u_arbiter_game\.fsm\.next_state\[2\]
*251 u_arbiter_game\.fsm\.state\[0\]
*252 u_arbiter_game\.fsm\.state\[1\]
*253 u_arbiter_game\.fsm\.state\[2\]
*254 u_arbiter_game\.fsm\.w_done
*255 u_arbiter_game\.u_cd\.cd_prescaler\[0\]
*256 u_arbiter_game\.u_cd\.cd_prescaler\[1\]
*257 u_arbiter_game\.u_cd\.cd_prescaler\[2\]
*258 u_arbiter_game\.u_cd\.cd_shift_reg\[0\]
*259 u_arbiter_game\.u_cd\.cd_shift_reg\[1\]
*260 u_arbiter_game\.u_cd\.cd_shift_reg\[2\]
*261 u_arbiter_game\.u_cd\.cd_shift_reg\[3\]
*262 u_arbiter_game\.u_cd\.prescaler_cntr\[0\]
*263 u_arbiter_game\.u_cd\.prescaler_cntr\[1\]
*264 u_arbiter_game\.u_cd\.prescaler_cntr\[2\]
*265 u_arbiter_game\.u_cd\.prescaler_cntr\[3\]
*266 u_arbiter_game\.u_cd\.prescaler_cntr\[4\]
*267 u_arbiter_game\.u_cd\.prescaler_cntr\[5\]
*268 u_arbiter_game\.u_cd\.prescaler_cntr\[6\]
*269 u_arbiter_game\.u_cd\.prescaler_cntr\[7\]
*270 u_arbiter_game\.u_cd\.prescaler_tc
*271 u_arbiter_game\.u_winner\.leds_out\[0\]
*272 u_arbiter_game\.u_winner\.leds_out\[1\]
*273 u_arbiter_game\.u_winner\.leds_out\[2\]
*274 u_arbiter_game\.u_winner\.leds_out\[3\]
*275 u_arbiter_game\.u_winner\.prescaler_cntr\[0\]
*276 u_arbiter_game\.u_winner\.prescaler_cntr\[1\]
*277 u_arbiter_game\.u_winner\.prescaler_cntr\[2\]
*278 u_arbiter_game\.u_winner\.prescaler_cntr\[3\]
*279 u_arbiter_game\.u_winner\.prescaler_cntr\[4\]
*280 u_arbiter_game\.u_winner\.prescaler_cntr\[5\]
*281 u_arbiter_game\.u_winner\.prescaler_cntr\[6\]
*282 u_arbiter_game\.u_winner\.prescaler_cntr\[7\]
*283 u_arbiter_game\.u_winner\.prescaler_tc
*284 u_arbiter_game\.u_winner\.shift_reg\[0\]
*285 u_arbiter_game\.u_winner\.shift_reg\[1\]
*286 u_arbiter_game\.u_winner\.shift_reg\[2\]
*287 u_arbiter_game\.u_winner\.shift_reg\[3\]
*288 u_arbiter_game\.u_winner\.timeout_cntr\[0\]
*289 u_arbiter_game\.u_winner\.timeout_cntr\[1\]
*290 u_arbiter_game\.u_winner\.timeout_cntr\[2\]
*291 u_arbiter_game\.u_winner\.timeout_cntr\[3\]
*292 FILLER_0_103
*293 FILLER_0_110
*294 FILLER_0_113
*295 FILLER_0_125
*296 FILLER_0_137
*297 FILLER_0_141
*298 FILLER_0_15
*299 FILLER_0_153
*300 FILLER_0_165
*301 FILLER_0_169
*302 FILLER_0_181
*303 FILLER_0_193
*304 FILLER_0_197
*305 FILLER_0_209
*306 FILLER_0_221
*307 FILLER_0_225
*308 FILLER_0_237
*309 FILLER_0_249
*310 FILLER_0_253
*311 FILLER_0_265
*312 FILLER_0_27
*313 FILLER_0_277
*314 FILLER_0_281
*315 FILLER_0_29
*316 FILLER_0_293
*317 FILLER_0_3
*318 FILLER_0_41
*319 FILLER_0_53
*320 FILLER_0_57
*321 FILLER_0_69
*322 FILLER_0_81
*323 FILLER_0_85
*324 FILLER_0_90
*325 FILLER_10_105
*326 FILLER_10_114
*327 FILLER_10_126
*328 FILLER_10_138
*329 FILLER_10_141
*330 FILLER_10_153
*331 FILLER_10_165
*332 FILLER_10_17
*333 FILLER_10_177
*334 FILLER_10_189
*335 FILLER_10_195
*336 FILLER_10_197
*337 FILLER_10_209
*338 FILLER_10_221
*339 FILLER_10_233
*340 FILLER_10_245
*341 FILLER_10_251
*342 FILLER_10_253
*343 FILLER_10_26
*344 FILLER_10_265
*345 FILLER_10_277
*346 FILLER_10_289
*347 FILLER_10_29
*348 FILLER_10_297
*349 FILLER_10_3
*350 FILLER_10_40
*351 FILLER_10_51
*352 FILLER_10_66
*353 FILLER_10_74
*354 FILLER_10_82
*355 FILLER_10_85
*356 FILLER_10_91
*357 FILLER_11_102
*358 FILLER_11_109
*359 FILLER_11_113
*360 FILLER_11_12
*361 FILLER_11_125
*362 FILLER_11_137
*363 FILLER_11_149
*364 FILLER_11_161
*365 FILLER_11_167
*366 FILLER_11_169
*367 FILLER_11_181
*368 FILLER_11_193
*369 FILLER_11_205
*370 FILLER_11_217
*371 FILLER_11_223
*372 FILLER_11_225
*373 FILLER_11_237
*374 FILLER_11_249
*375 FILLER_11_261
*376 FILLER_11_273
*377 FILLER_11_279
*378 FILLER_11_281
*379 FILLER_11_293
*380 FILLER_11_3
*381 FILLER_11_36
*382 FILLER_11_44
*383 FILLER_11_54
*384 FILLER_11_57
*385 FILLER_11_61
*386 FILLER_11_69
*387 FILLER_11_7
*388 FILLER_11_80
*389 FILLER_11_88
*390 FILLER_11_95
*391 FILLER_12_106
*392 FILLER_12_118
*393 FILLER_12_130
*394 FILLER_12_138
*395 FILLER_12_141
*396 FILLER_12_153
*397 FILLER_12_16
*398 FILLER_12_165
*399 FILLER_12_177
*400 FILLER_12_189
*401 FILLER_12_195
*402 FILLER_12_197
*403 FILLER_12_20
*404 FILLER_12_209
*405 FILLER_12_221
*406 FILLER_12_233
*407 FILLER_12_245
*408 FILLER_12_251
*409 FILLER_12_253
*410 FILLER_12_26
*411 FILLER_12_265
*412 FILLER_12_277
*413 FILLER_12_289
*414 FILLER_12_29
*415 FILLER_12_297
*416 FILLER_12_3
*417 FILLER_12_37
*418 FILLER_12_65
*419 FILLER_12_76
*420 FILLER_12_85
*421 FILLER_12_9
*422 FILLER_12_95
*423 FILLER_13_110
*424 FILLER_13_113
*425 FILLER_13_119
*426 FILLER_13_131
*427 FILLER_13_14
*428 FILLER_13_143
*429 FILLER_13_155
*430 FILLER_13_167
*431 FILLER_13_169
*432 FILLER_13_181
*433 FILLER_13_193
*434 FILLER_13_205
*435 FILLER_13_217
*436 FILLER_13_223
*437 FILLER_13_225
*438 FILLER_13_237
*439 FILLER_13_24
*440 FILLER_13_249
*441 FILLER_13_261
*442 FILLER_13_273
*443 FILLER_13_279
*444 FILLER_13_281
*445 FILLER_13_293
*446 FILLER_13_3
*447 FILLER_13_30
*448 FILLER_13_39
*449 FILLER_13_54
*450 FILLER_13_57
*451 FILLER_13_86
*452 FILLER_14_106
*453 FILLER_14_113
*454 FILLER_14_125
*455 FILLER_14_137
*456 FILLER_14_141
*457 FILLER_14_153
*458 FILLER_14_165
*459 FILLER_14_177
*460 FILLER_14_189
*461 FILLER_14_195
*462 FILLER_14_197
*463 FILLER_14_209
*464 FILLER_14_221
*465 FILLER_14_233
*466 FILLER_14_245
*467 FILLER_14_25
*468 FILLER_14_251
*469 FILLER_14_253
*470 FILLER_14_265
*471 FILLER_14_277
*472 FILLER_14_289
*473 FILLER_14_29
*474 FILLER_14_297
*475 FILLER_14_3
*476 FILLER_14_40
*477 FILLER_14_48
*478 FILLER_14_71
*479 FILLER_14_78
*480 FILLER_14_85
*481 FILLER_14_97
*482 FILLER_15_103
*483 FILLER_15_111
*484 FILLER_15_113
*485 FILLER_15_125
*486 FILLER_15_137
*487 FILLER_15_14
*488 FILLER_15_149
*489 FILLER_15_161
*490 FILLER_15_167
*491 FILLER_15_169
*492 FILLER_15_181
*493 FILLER_15_193
*494 FILLER_15_205
*495 FILLER_15_217
*496 FILLER_15_223
*497 FILLER_15_225
*498 FILLER_15_237
*499 FILLER_15_249
*500 FILLER_15_261
*501 FILLER_15_273
*502 FILLER_15_279
*503 FILLER_15_281
*504 FILLER_15_293
*505 FILLER_15_3
*506 FILLER_15_38
*507 FILLER_15_48
*508 FILLER_15_57
*509 FILLER_15_65
*510 FILLER_15_69
*511 FILLER_15_77
*512 FILLER_15_81
*513 FILLER_15_85
*514 FILLER_15_92
*515 FILLER_16_107
*516 FILLER_16_114
*517 FILLER_16_126
*518 FILLER_16_138
*519 FILLER_16_14
*520 FILLER_16_141
*521 FILLER_16_153
*522 FILLER_16_165
*523 FILLER_16_177
*524 FILLER_16_189
*525 FILLER_16_195
*526 FILLER_16_197
*527 FILLER_16_209
*528 FILLER_16_221
*529 FILLER_16_233
*530 FILLER_16_245
*531 FILLER_16_25
*532 FILLER_16_251
*533 FILLER_16_253
*534 FILLER_16_265
*535 FILLER_16_277
*536 FILLER_16_289
*537 FILLER_16_29
*538 FILLER_16_297
*539 FILLER_16_3
*540 FILLER_16_34
*541 FILLER_16_43
*542 FILLER_16_67
*543 FILLER_16_74
*544 FILLER_16_78
*545 FILLER_16_82
*546 FILLER_16_85
*547 FILLER_17_103
*548 FILLER_17_111
*549 FILLER_17_113
*550 FILLER_17_125
*551 FILLER_17_137
*552 FILLER_17_149
*553 FILLER_17_15
*554 FILLER_17_161
*555 FILLER_17_167
*556 FILLER_17_169
*557 FILLER_17_181
*558 FILLER_17_193
*559 FILLER_17_205
*560 FILLER_17_217
*561 FILLER_17_223
*562 FILLER_17_225
*563 FILLER_17_237
*564 FILLER_17_249
*565 FILLER_17_26
*566 FILLER_17_261
*567 FILLER_17_273
*568 FILLER_17_279
*569 FILLER_17_281
*570 FILLER_17_293
*571 FILLER_17_3
*572 FILLER_17_33
*573 FILLER_17_42
*574 FILLER_17_46
*575 FILLER_17_54
*576 FILLER_17_57
*577 FILLER_17_66
*578 FILLER_17_7
*579 FILLER_17_79
*580 FILLER_17_86
*581 FILLER_17_90
*582 FILLER_17_94
*583 FILLER_18_107
*584 FILLER_18_119
*585 FILLER_18_131
*586 FILLER_18_139
*587 FILLER_18_141
*588 FILLER_18_153
*589 FILLER_18_165
*590 FILLER_18_177
*591 FILLER_18_189
*592 FILLER_18_195
*593 FILLER_18_197
*594 FILLER_18_209
*595 FILLER_18_221
*596 FILLER_18_233
*597 FILLER_18_245
*598 FILLER_18_25
*599 FILLER_18_251
*600 FILLER_18_253
*601 FILLER_18_265
*602 FILLER_18_277
*603 FILLER_18_289
*604 FILLER_18_29
*605 FILLER_18_297
*606 FILLER_18_3
*607 FILLER_18_40
*608 FILLER_18_51
*609 FILLER_18_62
*610 FILLER_18_77
*611 FILLER_18_83
*612 FILLER_18_85
*613 FILLER_19_109
*614 FILLER_19_113
*615 FILLER_19_125
*616 FILLER_19_137
*617 FILLER_19_149
*618 FILLER_19_16
*619 FILLER_19_161
*620 FILLER_19_167
*621 FILLER_19_169
*622 FILLER_19_181
*623 FILLER_19_193
*624 FILLER_19_205
*625 FILLER_19_217
*626 FILLER_19_223
*627 FILLER_19_225
*628 FILLER_19_237
*629 FILLER_19_249
*630 FILLER_19_261
*631 FILLER_19_27
*632 FILLER_19_273
*633 FILLER_19_279
*634 FILLER_19_281
*635 FILLER_19_293
*636 FILLER_19_3
*637 FILLER_19_34
*638 FILLER_19_45
*639 FILLER_19_54
*640 FILLER_19_57
*641 FILLER_19_66
*642 FILLER_19_9
*643 FILLER_19_90
*644 FILLER_19_97
*645 FILLER_1_104
*646 FILLER_1_113
*647 FILLER_1_125
*648 FILLER_1_137
*649 FILLER_1_149
*650 FILLER_1_15
*651 FILLER_1_161
*652 FILLER_1_167
*653 FILLER_1_169
*654 FILLER_1_181
*655 FILLER_1_193
*656 FILLER_1_205
*657 FILLER_1_217
*658 FILLER_1_223
*659 FILLER_1_225
*660 FILLER_1_237
*661 FILLER_1_249
*662 FILLER_1_261
*663 FILLER_1_27
*664 FILLER_1_273
*665 FILLER_1_279
*666 FILLER_1_281
*667 FILLER_1_293
*668 FILLER_1_3
*669 FILLER_1_39
*670 FILLER_1_51
*671 FILLER_1_55
*672 FILLER_1_57
*673 FILLER_1_69
*674 FILLER_1_95
*675 FILLER_20_107
*676 FILLER_20_11
*677 FILLER_20_114
*678 FILLER_20_126
*679 FILLER_20_138
*680 FILLER_20_141
*681 FILLER_20_153
*682 FILLER_20_165
*683 FILLER_20_177
*684 FILLER_20_18
*685 FILLER_20_189
*686 FILLER_20_195
*687 FILLER_20_197
*688 FILLER_20_209
*689 FILLER_20_221
*690 FILLER_20_233
*691 FILLER_20_245
*692 FILLER_20_25
*693 FILLER_20_251
*694 FILLER_20_253
*695 FILLER_20_265
*696 FILLER_20_277
*697 FILLER_20_289
*698 FILLER_20_29
*699 FILLER_20_297
*700 FILLER_20_3
*701 FILLER_20_40
*702 FILLER_20_68
*703 FILLER_20_7
*704 FILLER_20_77
*705 FILLER_20_83
*706 FILLER_20_85
*707 FILLER_21_101
*708 FILLER_21_110
*709 FILLER_21_113
*710 FILLER_21_120
*711 FILLER_21_132
*712 FILLER_21_144
*713 FILLER_21_156
*714 FILLER_21_169
*715 FILLER_21_181
*716 FILLER_21_193
*717 FILLER_21_205
*718 FILLER_21_217
*719 FILLER_21_223
*720 FILLER_21_225
*721 FILLER_21_237
*722 FILLER_21_249
*723 FILLER_21_25
*724 FILLER_21_261
*725 FILLER_21_273
*726 FILLER_21_279
*727 FILLER_21_281
*728 FILLER_21_293
*729 FILLER_21_3
*730 FILLER_21_31
*731 FILLER_21_52
*732 FILLER_21_57
*733 FILLER_21_79
*734 FILLER_21_87
*735 FILLER_21_94
*736 FILLER_22_107
*737 FILLER_22_115
*738 FILLER_22_127
*739 FILLER_22_139
*740 FILLER_22_141
*741 FILLER_22_15
*742 FILLER_22_153
*743 FILLER_22_165
*744 FILLER_22_177
*745 FILLER_22_189
*746 FILLER_22_19
*747 FILLER_22_195
*748 FILLER_22_197
*749 FILLER_22_209
*750 FILLER_22_221
*751 FILLER_22_233
*752 FILLER_22_245
*753 FILLER_22_251
*754 FILLER_22_253
*755 FILLER_22_26
*756 FILLER_22_265
*757 FILLER_22_277
*758 FILLER_22_289
*759 FILLER_22_29
*760 FILLER_22_297
*761 FILLER_22_3
*762 FILLER_22_38
*763 FILLER_22_44
*764 FILLER_22_65
*765 FILLER_22_77
*766 FILLER_22_8
*767 FILLER_22_83
*768 FILLER_22_85
*769 FILLER_23_104
*770 FILLER_23_110
*771 FILLER_23_113
*772 FILLER_23_121
*773 FILLER_23_133
*774 FILLER_23_145
*775 FILLER_23_157
*776 FILLER_23_165
*777 FILLER_23_169
*778 FILLER_23_181
*779 FILLER_23_193
*780 FILLER_23_205
*781 FILLER_23_217
*782 FILLER_23_223
*783 FILLER_23_225
*784 FILLER_23_237
*785 FILLER_23_249
*786 FILLER_23_25
*787 FILLER_23_261
*788 FILLER_23_273
*789 FILLER_23_279
*790 FILLER_23_281
*791 FILLER_23_293
*792 FILLER_23_3
*793 FILLER_23_40
*794 FILLER_23_54
*795 FILLER_23_57
*796 FILLER_23_62
*797 FILLER_23_66
*798 FILLER_23_88
*799 FILLER_23_92
*800 FILLER_23_96
*801 FILLER_24_106
*802 FILLER_24_116
*803 FILLER_24_128
*804 FILLER_24_141
*805 FILLER_24_15
*806 FILLER_24_153
*807 FILLER_24_165
*808 FILLER_24_177
*809 FILLER_24_189
*810 FILLER_24_195
*811 FILLER_24_197
*812 FILLER_24_209
*813 FILLER_24_221
*814 FILLER_24_233
*815 FILLER_24_245
*816 FILLER_24_251
*817 FILLER_24_253
*818 FILLER_24_26
*819 FILLER_24_265
*820 FILLER_24_277
*821 FILLER_24_289
*822 FILLER_24_29
*823 FILLER_24_297
*824 FILLER_24_3
*825 FILLER_24_40
*826 FILLER_24_46
*827 FILLER_24_67
*828 FILLER_24_75
*829 FILLER_24_8
*830 FILLER_24_80
*831 FILLER_24_85
*832 FILLER_24_94
*833 FILLER_25_103
*834 FILLER_25_110
*835 FILLER_25_113
*836 FILLER_25_123
*837 FILLER_25_135
*838 FILLER_25_147
*839 FILLER_25_159
*840 FILLER_25_167
*841 FILLER_25_169
*842 FILLER_25_181
*843 FILLER_25_193
*844 FILLER_25_205
*845 FILLER_25_217
*846 FILLER_25_223
*847 FILLER_25_225
*848 FILLER_25_237
*849 FILLER_25_249
*850 FILLER_25_25
*851 FILLER_25_261
*852 FILLER_25_273
*853 FILLER_25_279
*854 FILLER_25_281
*855 FILLER_25_293
*856 FILLER_25_3
*857 FILLER_25_36
*858 FILLER_25_44
*859 FILLER_25_54
*860 FILLER_25_57
*861 FILLER_25_62
*862 FILLER_25_70
*863 FILLER_25_75
*864 FILLER_25_87
*865 FILLER_25_91
*866 FILLER_25_95
*867 FILLER_26_107
*868 FILLER_26_116
*869 FILLER_26_124
*870 FILLER_26_13
*871 FILLER_26_136
*872 FILLER_26_141
*873 FILLER_26_153
*874 FILLER_26_165
*875 FILLER_26_177
*876 FILLER_26_189
*877 FILLER_26_195
*878 FILLER_26_197
*879 FILLER_26_209
*880 FILLER_26_221
*881 FILLER_26_233
*882 FILLER_26_245
*883 FILLER_26_251
*884 FILLER_26_253
*885 FILLER_26_26
*886 FILLER_26_265
*887 FILLER_26_277
*888 FILLER_26_289
*889 FILLER_26_29
*890 FILLER_26_297
*891 FILLER_26_3
*892 FILLER_26_40
*893 FILLER_26_48
*894 FILLER_26_53
*895 FILLER_26_64
*896 FILLER_26_76
*897 FILLER_26_85
*898 FILLER_26_9
*899 FILLER_27_110
*900 FILLER_27_113
*901 FILLER_27_132
*902 FILLER_27_144
*903 FILLER_27_156
*904 FILLER_27_169
*905 FILLER_27_181
*906 FILLER_27_193
*907 FILLER_27_205
*908 FILLER_27_217
*909 FILLER_27_223
*910 FILLER_27_225
*911 FILLER_27_237
*912 FILLER_27_249
*913 FILLER_27_261
*914 FILLER_27_273
*915 FILLER_27_279
*916 FILLER_27_281
*917 FILLER_27_293
*918 FILLER_27_3
*919 FILLER_27_30
*920 FILLER_27_54
*921 FILLER_27_57
*922 FILLER_27_84
*923 FILLER_27_88
*924 FILLER_27_9
*925 FILLER_27_92
*926 FILLER_27_99
*927 FILLER_28_107
*928 FILLER_28_115
*929 FILLER_28_122
*930 FILLER_28_134
*931 FILLER_28_141
*932 FILLER_28_153
*933 FILLER_28_165
*934 FILLER_28_177
*935 FILLER_28_189
*936 FILLER_28_195
*937 FILLER_28_197
*938 FILLER_28_209
*939 FILLER_28_221
*940 FILLER_28_233
*941 FILLER_28_245
*942 FILLER_28_25
*943 FILLER_28_251
*944 FILLER_28_253
*945 FILLER_28_265
*946 FILLER_28_277
*947 FILLER_28_289
*948 FILLER_28_29
*949 FILLER_28_297
*950 FILLER_28_3
*951 FILLER_28_41
*952 FILLER_28_54
*953 FILLER_28_62
*954 FILLER_28_69
*955 FILLER_28_76
*956 FILLER_28_85
*957 FILLER_29_10
*958 FILLER_29_104
*959 FILLER_29_110
*960 FILLER_29_113
*961 FILLER_29_120
*962 FILLER_29_132
*963 FILLER_29_144
*964 FILLER_29_156
*965 FILLER_29_169
*966 FILLER_29_17
*967 FILLER_29_181
*968 FILLER_29_193
*969 FILLER_29_205
*970 FILLER_29_217
*971 FILLER_29_223
*972 FILLER_29_225
*973 FILLER_29_237
*974 FILLER_29_24
*975 FILLER_29_249
*976 FILLER_29_261
*977 FILLER_29_273
*978 FILLER_29_279
*979 FILLER_29_281
*980 FILLER_29_293
*981 FILLER_29_3
*982 FILLER_29_32
*983 FILLER_29_44
*984 FILLER_29_50
*985 FILLER_29_54
*986 FILLER_29_57
*987 FILLER_29_65
*988 FILLER_29_73
*989 FILLER_29_79
*990 FILLER_29_91
*991 FILLER_29_96
*992 FILLER_2_107
*993 FILLER_2_119
*994 FILLER_2_131
*995 FILLER_2_139
*996 FILLER_2_141
*997 FILLER_2_15
*998 FILLER_2_153
*999 FILLER_2_165
*1000 FILLER_2_177
*1001 FILLER_2_189
*1002 FILLER_2_195
*1003 FILLER_2_197
*1004 FILLER_2_209
*1005 FILLER_2_221
*1006 FILLER_2_233
*1007 FILLER_2_245
*1008 FILLER_2_251
*1009 FILLER_2_253
*1010 FILLER_2_265
*1011 FILLER_2_27
*1012 FILLER_2_277
*1013 FILLER_2_289
*1014 FILLER_2_29
*1015 FILLER_2_297
*1016 FILLER_2_3
*1017 FILLER_2_41
*1018 FILLER_2_49
*1019 FILLER_2_54
*1020 FILLER_2_66
*1021 FILLER_2_78
*1022 FILLER_2_82
*1023 FILLER_2_85
*1024 FILLER_30_107
*1025 FILLER_30_118
*1026 FILLER_30_130
*1027 FILLER_30_138
*1028 FILLER_30_141
*1029 FILLER_30_153
*1030 FILLER_30_165
*1031 FILLER_30_177
*1032 FILLER_30_189
*1033 FILLER_30_195
*1034 FILLER_30_197
*1035 FILLER_30_209
*1036 FILLER_30_22
*1037 FILLER_30_221
*1038 FILLER_30_233
*1039 FILLER_30_245
*1040 FILLER_30_251
*1041 FILLER_30_253
*1042 FILLER_30_265
*1043 FILLER_30_277
*1044 FILLER_30_289
*1045 FILLER_30_29
*1046 FILLER_30_297
*1047 FILLER_30_3
*1048 FILLER_30_37
*1049 FILLER_30_58
*1050 FILLER_30_82
*1051 FILLER_30_85
*1052 FILLER_31_109
*1053 FILLER_31_113
*1054 FILLER_31_120
*1055 FILLER_31_132
*1056 FILLER_31_144
*1057 FILLER_31_156
*1058 FILLER_31_169
*1059 FILLER_31_181
*1060 FILLER_31_193
*1061 FILLER_31_205
*1062 FILLER_31_217
*1063 FILLER_31_223
*1064 FILLER_31_225
*1065 FILLER_31_237
*1066 FILLER_31_249
*1067 FILLER_31_261
*1068 FILLER_31_27
*1069 FILLER_31_273
*1070 FILLER_31_279
*1071 FILLER_31_281
*1072 FILLER_31_293
*1073 FILLER_31_3
*1074 FILLER_31_44
*1075 FILLER_31_57
*1076 FILLER_31_68
*1077 FILLER_31_80
*1078 FILLER_31_90
*1079 FILLER_31_97
*1080 FILLER_32_107
*1081 FILLER_32_117
*1082 FILLER_32_124
*1083 FILLER_32_13
*1084 FILLER_32_136
*1085 FILLER_32_141
*1086 FILLER_32_153
*1087 FILLER_32_165
*1088 FILLER_32_177
*1089 FILLER_32_189
*1090 FILLER_32_195
*1091 FILLER_32_197
*1092 FILLER_32_209
*1093 FILLER_32_221
*1094 FILLER_32_233
*1095 FILLER_32_245
*1096 FILLER_32_251
*1097 FILLER_32_253
*1098 FILLER_32_26
*1099 FILLER_32_265
*1100 FILLER_32_277
*1101 FILLER_32_289
*1102 FILLER_32_29
*1103 FILLER_32_297
*1104 FILLER_32_3
*1105 FILLER_32_41
*1106 FILLER_32_62
*1107 FILLER_32_75
*1108 FILLER_32_82
*1109 FILLER_32_85
*1110 FILLER_32_9
*1111 FILLER_33_103
*1112 FILLER_33_110
*1113 FILLER_33_113
*1114 FILLER_33_123
*1115 FILLER_33_135
*1116 FILLER_33_147
*1117 FILLER_33_159
*1118 FILLER_33_167
*1119 FILLER_33_169
*1120 FILLER_33_181
*1121 FILLER_33_193
*1122 FILLER_33_205
*1123 FILLER_33_217
*1124 FILLER_33_223
*1125 FILLER_33_225
*1126 FILLER_33_237
*1127 FILLER_33_249
*1128 FILLER_33_261
*1129 FILLER_33_273
*1130 FILLER_33_279
*1131 FILLER_33_281
*1132 FILLER_33_293
*1133 FILLER_33_3
*1134 FILLER_33_35
*1135 FILLER_33_48
*1136 FILLER_33_57
*1137 FILLER_33_62
*1138 FILLER_33_69
*1139 FILLER_33_81
*1140 FILLER_33_89
*1141 FILLER_33_95
*1142 FILLER_34_107
*1143 FILLER_34_116
*1144 FILLER_34_123
*1145 FILLER_34_135
*1146 FILLER_34_139
*1147 FILLER_34_141
*1148 FILLER_34_153
*1149 FILLER_34_165
*1150 FILLER_34_177
*1151 FILLER_34_189
*1152 FILLER_34_195
*1153 FILLER_34_197
*1154 FILLER_34_209
*1155 FILLER_34_22
*1156 FILLER_34_221
*1157 FILLER_34_233
*1158 FILLER_34_245
*1159 FILLER_34_251
*1160 FILLER_34_253
*1161 FILLER_34_265
*1162 FILLER_34_277
*1163 FILLER_34_289
*1164 FILLER_34_29
*1165 FILLER_34_297
*1166 FILLER_34_3
*1167 FILLER_34_40
*1168 FILLER_34_53
*1169 FILLER_34_59
*1170 FILLER_34_64
*1171 FILLER_34_75
*1172 FILLER_34_82
*1173 FILLER_34_85
*1174 FILLER_34_90
*1175 FILLER_34_94
*1176 FILLER_34_98
*1177 FILLER_35_108
*1178 FILLER_35_11
*1179 FILLER_35_113
*1180 FILLER_35_125
*1181 FILLER_35_137
*1182 FILLER_35_149
*1183 FILLER_35_16
*1184 FILLER_35_161
*1185 FILLER_35_167
*1186 FILLER_35_169
*1187 FILLER_35_181
*1188 FILLER_35_193
*1189 FILLER_35_205
*1190 FILLER_35_217
*1191 FILLER_35_223
*1192 FILLER_35_225
*1193 FILLER_35_23
*1194 FILLER_35_237
*1195 FILLER_35_249
*1196 FILLER_35_261
*1197 FILLER_35_27
*1198 FILLER_35_273
*1199 FILLER_35_279
*1200 FILLER_35_281
*1201 FILLER_35_293
*1202 FILLER_35_3
*1203 FILLER_35_48
*1204 FILLER_35_57
*1205 FILLER_35_63
*1206 FILLER_35_84
*1207 FILLER_36_109
*1208 FILLER_36_121
*1209 FILLER_36_133
*1210 FILLER_36_139
*1211 FILLER_36_141
*1212 FILLER_36_153
*1213 FILLER_36_165
*1214 FILLER_36_177
*1215 FILLER_36_189
*1216 FILLER_36_195
*1217 FILLER_36_197
*1218 FILLER_36_209
*1219 FILLER_36_22
*1220 FILLER_36_221
*1221 FILLER_36_233
*1222 FILLER_36_245
*1223 FILLER_36_251
*1224 FILLER_36_253
*1225 FILLER_36_265
*1226 FILLER_36_277
*1227 FILLER_36_289
*1228 FILLER_36_29
*1229 FILLER_36_297
*1230 FILLER_36_3
*1231 FILLER_36_34
*1232 FILLER_36_38
*1233 FILLER_36_42
*1234 FILLER_36_48
*1235 FILLER_36_69
*1236 FILLER_36_76
*1237 FILLER_36_85
*1238 FILLER_36_97
*1239 FILLER_37_110
*1240 FILLER_37_113
*1241 FILLER_37_125
*1242 FILLER_37_137
*1243 FILLER_37_149
*1244 FILLER_37_161
*1245 FILLER_37_167
*1246 FILLER_37_169
*1247 FILLER_37_181
*1248 FILLER_37_193
*1249 FILLER_37_205
*1250 FILLER_37_217
*1251 FILLER_37_22
*1252 FILLER_37_223
*1253 FILLER_37_225
*1254 FILLER_37_237
*1255 FILLER_37_249
*1256 FILLER_37_261
*1257 FILLER_37_273
*1258 FILLER_37_279
*1259 FILLER_37_281
*1260 FILLER_37_293
*1261 FILLER_37_3
*1262 FILLER_37_34
*1263 FILLER_37_46
*1264 FILLER_37_54
*1265 FILLER_37_57
*1266 FILLER_37_62
*1267 FILLER_37_74
*1268 FILLER_37_86
*1269 FILLER_37_98
*1270 FILLER_38_109
*1271 FILLER_38_121
*1272 FILLER_38_133
*1273 FILLER_38_139
*1274 FILLER_38_141
*1275 FILLER_38_15
*1276 FILLER_38_153
*1277 FILLER_38_165
*1278 FILLER_38_177
*1279 FILLER_38_189
*1280 FILLER_38_195
*1281 FILLER_38_197
*1282 FILLER_38_209
*1283 FILLER_38_221
*1284 FILLER_38_233
*1285 FILLER_38_245
*1286 FILLER_38_251
*1287 FILLER_38_253
*1288 FILLER_38_265
*1289 FILLER_38_27
*1290 FILLER_38_277
*1291 FILLER_38_289
*1292 FILLER_38_29
*1293 FILLER_38_297
*1294 FILLER_38_3
*1295 FILLER_38_41
*1296 FILLER_38_53
*1297 FILLER_38_65
*1298 FILLER_38_77
*1299 FILLER_38_83
*1300 FILLER_38_85
*1301 FILLER_38_97
*1302 FILLER_39_105
*1303 FILLER_39_111
*1304 FILLER_39_113
*1305 FILLER_39_125
*1306 FILLER_39_137
*1307 FILLER_39_149
*1308 FILLER_39_15
*1309 FILLER_39_161
*1310 FILLER_39_167
*1311 FILLER_39_169
*1312 FILLER_39_181
*1313 FILLER_39_193
*1314 FILLER_39_205
*1315 FILLER_39_217
*1316 FILLER_39_223
*1317 FILLER_39_225
*1318 FILLER_39_237
*1319 FILLER_39_249
*1320 FILLER_39_261
*1321 FILLER_39_27
*1322 FILLER_39_273
*1323 FILLER_39_279
*1324 FILLER_39_281
*1325 FILLER_39_293
*1326 FILLER_39_3
*1327 FILLER_39_39
*1328 FILLER_39_51
*1329 FILLER_39_55
*1330 FILLER_39_57
*1331 FILLER_39_69
*1332 FILLER_39_81
*1333 FILLER_39_93
*1334 FILLER_3_103
*1335 FILLER_3_110
*1336 FILLER_3_113
*1337 FILLER_3_125
*1338 FILLER_3_137
*1339 FILLER_3_149
*1340 FILLER_3_161
*1341 FILLER_3_167
*1342 FILLER_3_169
*1343 FILLER_3_181
*1344 FILLER_3_193
*1345 FILLER_3_20
*1346 FILLER_3_205
*1347 FILLER_3_217
*1348 FILLER_3_223
*1349 FILLER_3_225
*1350 FILLER_3_237
*1351 FILLER_3_249
*1352 FILLER_3_261
*1353 FILLER_3_273
*1354 FILLER_3_279
*1355 FILLER_3_281
*1356 FILLER_3_293
*1357 FILLER_3_3
*1358 FILLER_3_32
*1359 FILLER_3_36
*1360 FILLER_3_40
*1361 FILLER_3_48
*1362 FILLER_3_54
*1363 FILLER_3_57
*1364 FILLER_3_62
*1365 FILLER_3_68
*1366 FILLER_3_76
*1367 FILLER_3_8
*1368 FILLER_3_85
*1369 FILLER_3_93
*1370 FILLER_40_109
*1371 FILLER_40_121
*1372 FILLER_40_133
*1373 FILLER_40_139
*1374 FILLER_40_141
*1375 FILLER_40_15
*1376 FILLER_40_153
*1377 FILLER_40_165
*1378 FILLER_40_177
*1379 FILLER_40_189
*1380 FILLER_40_195
*1381 FILLER_40_197
*1382 FILLER_40_209
*1383 FILLER_40_221
*1384 FILLER_40_233
*1385 FILLER_40_245
*1386 FILLER_40_251
*1387 FILLER_40_253
*1388 FILLER_40_265
*1389 FILLER_40_27
*1390 FILLER_40_277
*1391 FILLER_40_289
*1392 FILLER_40_29
*1393 FILLER_40_297
*1394 FILLER_40_3
*1395 FILLER_40_41
*1396 FILLER_40_53
*1397 FILLER_40_65
*1398 FILLER_40_77
*1399 FILLER_40_83
*1400 FILLER_40_85
*1401 FILLER_40_97
*1402 FILLER_41_105
*1403 FILLER_41_111
*1404 FILLER_41_113
*1405 FILLER_41_125
*1406 FILLER_41_137
*1407 FILLER_41_149
*1408 FILLER_41_15
*1409 FILLER_41_161
*1410 FILLER_41_167
*1411 FILLER_41_169
*1412 FILLER_41_181
*1413 FILLER_41_193
*1414 FILLER_41_205
*1415 FILLER_41_217
*1416 FILLER_41_223
*1417 FILLER_41_225
*1418 FILLER_41_237
*1419 FILLER_41_249
*1420 FILLER_41_261
*1421 FILLER_41_27
*1422 FILLER_41_273
*1423 FILLER_41_279
*1424 FILLER_41_281
*1425 FILLER_41_293
*1426 FILLER_41_3
*1427 FILLER_41_39
*1428 FILLER_41_51
*1429 FILLER_41_55
*1430 FILLER_41_57
*1431 FILLER_41_69
*1432 FILLER_41_81
*1433 FILLER_41_93
*1434 FILLER_42_109
*1435 FILLER_42_121
*1436 FILLER_42_133
*1437 FILLER_42_139
*1438 FILLER_42_141
*1439 FILLER_42_15
*1440 FILLER_42_153
*1441 FILLER_42_165
*1442 FILLER_42_177
*1443 FILLER_42_189
*1444 FILLER_42_195
*1445 FILLER_42_197
*1446 FILLER_42_209
*1447 FILLER_42_221
*1448 FILLER_42_233
*1449 FILLER_42_245
*1450 FILLER_42_251
*1451 FILLER_42_253
*1452 FILLER_42_265
*1453 FILLER_42_27
*1454 FILLER_42_277
*1455 FILLER_42_289
*1456 FILLER_42_29
*1457 FILLER_42_297
*1458 FILLER_42_3
*1459 FILLER_42_41
*1460 FILLER_42_53
*1461 FILLER_42_65
*1462 FILLER_42_77
*1463 FILLER_42_83
*1464 FILLER_42_85
*1465 FILLER_42_97
*1466 FILLER_43_105
*1467 FILLER_43_111
*1468 FILLER_43_113
*1469 FILLER_43_125
*1470 FILLER_43_137
*1471 FILLER_43_149
*1472 FILLER_43_15
*1473 FILLER_43_161
*1474 FILLER_43_167
*1475 FILLER_43_169
*1476 FILLER_43_181
*1477 FILLER_43_193
*1478 FILLER_43_205
*1479 FILLER_43_217
*1480 FILLER_43_223
*1481 FILLER_43_225
*1482 FILLER_43_237
*1483 FILLER_43_249
*1484 FILLER_43_261
*1485 FILLER_43_27
*1486 FILLER_43_273
*1487 FILLER_43_279
*1488 FILLER_43_281
*1489 FILLER_43_293
*1490 FILLER_43_3
*1491 FILLER_43_39
*1492 FILLER_43_51
*1493 FILLER_43_55
*1494 FILLER_43_57
*1495 FILLER_43_69
*1496 FILLER_43_81
*1497 FILLER_43_93
*1498 FILLER_44_109
*1499 FILLER_44_121
*1500 FILLER_44_133
*1501 FILLER_44_139
*1502 FILLER_44_141
*1503 FILLER_44_15
*1504 FILLER_44_153
*1505 FILLER_44_165
*1506 FILLER_44_177
*1507 FILLER_44_189
*1508 FILLER_44_195
*1509 FILLER_44_197
*1510 FILLER_44_209
*1511 FILLER_44_221
*1512 FILLER_44_233
*1513 FILLER_44_245
*1514 FILLER_44_251
*1515 FILLER_44_253
*1516 FILLER_44_265
*1517 FILLER_44_27
*1518 FILLER_44_277
*1519 FILLER_44_289
*1520 FILLER_44_29
*1521 FILLER_44_297
*1522 FILLER_44_3
*1523 FILLER_44_41
*1524 FILLER_44_53
*1525 FILLER_44_65
*1526 FILLER_44_77
*1527 FILLER_44_83
*1528 FILLER_44_85
*1529 FILLER_44_97
*1530 FILLER_45_105
*1531 FILLER_45_111
*1532 FILLER_45_113
*1533 FILLER_45_125
*1534 FILLER_45_137
*1535 FILLER_45_149
*1536 FILLER_45_15
*1537 FILLER_45_161
*1538 FILLER_45_167
*1539 FILLER_45_169
*1540 FILLER_45_181
*1541 FILLER_45_193
*1542 FILLER_45_205
*1543 FILLER_45_217
*1544 FILLER_45_223
*1545 FILLER_45_225
*1546 FILLER_45_237
*1547 FILLER_45_249
*1548 FILLER_45_261
*1549 FILLER_45_27
*1550 FILLER_45_273
*1551 FILLER_45_279
*1552 FILLER_45_281
*1553 FILLER_45_293
*1554 FILLER_45_3
*1555 FILLER_45_39
*1556 FILLER_45_51
*1557 FILLER_45_55
*1558 FILLER_45_57
*1559 FILLER_45_69
*1560 FILLER_45_81
*1561 FILLER_45_93
*1562 FILLER_46_109
*1563 FILLER_46_121
*1564 FILLER_46_133
*1565 FILLER_46_139
*1566 FILLER_46_141
*1567 FILLER_46_153
*1568 FILLER_46_165
*1569 FILLER_46_177
*1570 FILLER_46_189
*1571 FILLER_46_195
*1572 FILLER_46_197
*1573 FILLER_46_20
*1574 FILLER_46_209
*1575 FILLER_46_221
*1576 FILLER_46_233
*1577 FILLER_46_245
*1578 FILLER_46_251
*1579 FILLER_46_253
*1580 FILLER_46_265
*1581 FILLER_46_277
*1582 FILLER_46_289
*1583 FILLER_46_29
*1584 FILLER_46_297
*1585 FILLER_46_3
*1586 FILLER_46_41
*1587 FILLER_46_53
*1588 FILLER_46_65
*1589 FILLER_46_77
*1590 FILLER_46_8
*1591 FILLER_46_83
*1592 FILLER_46_85
*1593 FILLER_46_97
*1594 FILLER_47_105
*1595 FILLER_47_111
*1596 FILLER_47_113
*1597 FILLER_47_125
*1598 FILLER_47_137
*1599 FILLER_47_149