*SPEF "ieee 1481-1999"
*DESIGN "mbikovitsky_top"
*DATE "11:11:11 Fri 11 11, 1111"
*VENDOR "OpenRCX"
*PROGRAM "Parallel Extraction"
*VERSION "1.0"
*DESIGN_FLOW "NAME_SCOPE LOCAL" "PIN_CAP NONE"
*DIVIDER /
*DELIMITER :
*BUS_DELIMITER []
*T_UNIT 1 NS
*C_UNIT 1 PF
*R_UNIT 1 OHM
*L_UNIT 1 HENRY

*NAME_MAP
*1 io_in[0]
*2 io_in[1]
*3 io_in[2]
*4 io_in[3]
*5 io_in[4]
*6 io_in[5]
*7 io_in[6]
*8 io_in[7]
*9 io_out[0]
*10 io_out[1]
*11 io_out[2]
*12 io_out[3]
*13 io_out[4]
*14 io_out[5]
*15 io_out[6]
*16 io_out[7]
*19 _0000_
*20 _0001_
*21 _0002_
*22 _0003_
*23 _0004_
*24 _0005_
*25 _0006_
*26 _0007_
*27 _0008_
*28 _0009_
*29 _0010_
*30 _0011_
*31 _0012_
*32 _0013_
*33 _0014_
*34 _0015_
*35 _0016_
*36 _0017_
*37 _0018_
*38 _0019_
*39 _0020_
*40 _0021_
*41 _0022_
*42 _0023_
*43 _0024_
*44 _0025_
*45 _0026_
*46 _0027_
*47 _0028_
*48 _0029_
*49 _0030_
*50 _0031_
*51 _0032_
*52 _0033_
*53 _0034_
*54 _0035_
*55 _0036_
*56 _0037_
*57 _0038_
*58 _0039_
*59 _0040_
*60 _0041_
*61 _0042_
*62 _0043_
*63 _0044_
*64 _0045_
*65 _0046_
*66 _0047_
*67 _0048_
*68 _0049_
*69 _0050_
*70 _0051_
*71 _0052_
*72 _0053_
*73 _0054_
*74 _0055_
*75 _0056_
*76 _0057_
*77 _0058_
*78 _0059_
*79 _0060_
*80 _0061_
*81 _0062_
*82 _0063_
*83 _0064_
*84 _0065_
*85 _0066_
*86 _0067_
*87 _0068_
*88 _0069_
*89 _0070_
*90 _0071_
*91 _0072_
*92 _0073_
*93 _0074_
*94 _0075_
*95 _0076_
*96 _0077_
*97 _0078_
*98 _0079_
*99 _0080_
*100 _0081_
*101 _0082_
*102 _0083_
*103 _0084_
*104 _0085_
*105 _0086_
*106 _0087_
*107 _0088_
*108 _0089_
*109 _0090_
*110 _0091_
*111 _0092_
*112 _0093_
*113 _0094_
*114 _0095_
*115 _0096_
*116 _0097_
*117 _0098_
*118 _0099_
*119 _0100_
*120 _0101_
*121 _0102_
*122 _0103_
*123 _0104_
*124 _0105_
*125 _0106_
*126 _0107_
*127 _0108_
*128 _0109_
*129 _0110_
*130 _0111_
*131 _0112_
*132 _0113_
*133 _0114_
*134 _0115_
*135 _0116_
*136 _0117_
*137 _0118_
*138 _0119_
*139 _0120_
*140 _0121_
*141 _0122_
*142 _0123_
*143 _0124_
*144 _0125_
*145 _0126_
*146 _0127_
*147 _0128_
*148 _0129_
*149 _0130_
*150 _0131_
*151 _0132_
*152 _0133_
*153 _0134_
*154 _0135_
*155 _0136_
*156 _0137_
*157 _0138_
*158 _0139_
*159 _0140_
*160 _0141_
*161 _0142_
*162 _0143_
*163 _0144_
*164 _0145_
*165 _0146_
*166 _0147_
*167 _0148_
*168 _0149_
*169 _0150_
*170 _0151_
*171 _0152_
*172 _0153_
*173 _0154_
*174 _0155_
*175 _0156_
*176 _0157_
*177 _0158_
*178 _0159_
*179 _0160_
*180 _0161_
*181 _0162_
*182 _0163_
*183 _0164_
*184 _0165_
*185 _0166_
*186 _0167_
*187 _0168_
*188 _0169_
*189 _0170_
*190 _0171_
*191 _0172_
*192 _0173_
*193 _0174_
*194 _0175_
*195 _0176_
*196 _0177_
*197 _0178_
*198 _0179_
*199 _0180_
*200 _0181_
*201 _0182_
*202 _0183_
*203 _0184_
*204 _0185_
*205 _0186_
*206 _0187_
*207 _0188_
*208 _0189_
*209 _0190_
*210 _0191_
*211 _0192_
*212 _0193_
*213 _0194_
*214 _0195_
*215 _0196_
*216 _0197_
*217 _0198_
*218 _0199_
*219 _0200_
*220 _0201_
*221 _0202_
*222 _0203_
*223 _0204_
*224 _0205_
*225 _0206_
*226 _0207_
*227 _0208_
*228 _0209_
*229 _0210_
*230 _0211_
*231 _0212_
*232 _0213_
*233 _0214_
*234 _0215_
*235 _0216_
*236 _0217_
*237 _0218_
*238 _0219_
*239 _0220_
*240 _0221_
*241 _0222_
*242 _0223_
*243 _0224_
*244 _0225_
*245 _0226_
*246 _0227_
*247 _0228_
*248 _0229_
*249 _0230_
*250 _0231_
*251 _0232_
*252 _0233_
*253 _0234_
*254 _0235_
*255 _0236_
*256 _0237_
*257 _0238_
*258 _0239_
*259 _0240_
*260 _0241_
*261 _0242_
*262 _0243_
*263 _0244_
*264 _0245_
*265 _0246_
*266 _0247_
*267 _0248_
*268 _0249_
*269 _0250_
*270 _0251_
*271 _0252_
*272 _0253_
*273 _0254_
*274 _0255_
*275 _0256_
*276 _0257_
*277 _0258_
*278 _0259_
*279 _0260_
*280 _0261_
*281 _0262_
*282 _0263_
*283 _0264_
*284 _0265_
*285 _0266_
*286 _0267_
*287 _0268_
*288 _0269_
*289 _0270_
*290 _0271_
*291 _0272_
*292 _0273_
*293 _0274_
*294 _0275_
*295 _0276_
*296 _0277_
*297 _0278_
*298 _0279_
*299 _0280_
*300 _0281_
*301 _0282_
*302 _0283_
*303 _0284_
*304 _0285_
*305 _0286_
*306 _0287_
*307 _0288_
*308 _0289_
*309 _0290_
*310 _0291_
*311 _0292_
*312 _0293_
*313 _0294_
*314 _0295_
*315 _0296_
*316 _0297_
*317 _0298_
*318 _0299_
*319 _0300_
*320 _0301_
*321 _0302_
*322 _0303_
*323 _0304_
*324 _0305_
*325 _0306_
*326 _0307_
*327 _0308_
*328 _0309_
*329 _0310_
*330 _0311_
*331 _0312_
*332 _0313_
*333 _0314_
*334 _0315_
*335 _0316_
*336 _0317_
*337 _0318_
*338 _0319_
*339 _0320_
*340 _0321_
*341 _0322_
*342 _0323_
*343 _0324_
*344 _0325_
*345 _0326_
*346 _0327_
*347 _0328_
*348 _0329_
*349 _0330_
*350 _0331_
*351 _0332_
*352 _0333_
*353 _0334_
*354 _0335_
*355 _0336_
*356 _0337_
*357 _0338_
*358 _0339_
*359 _0340_
*360 _0341_
*361 _0342_
*362 _0343_
*363 _0344_
*364 _0345_
*365 _0346_
*366 _0347_
*367 _0348_
*368 _0349_
*369 _0350_
*370 _0351_
*371 _0352_
*372 _0353_
*373 _0354_
*374 _0355_
*375 _0356_
*376 _0357_
*377 _0358_
*378 _0359_
*379 _0360_
*380 _0361_
*381 _0362_
*382 _0363_
*383 _0364_
*384 _0365_
*385 _0366_
*386 _0367_
*387 _0368_
*388 _0369_
*389 _0370_
*390 _0371_
*391 _0372_
*392 _0373_
*393 _0374_
*394 _0375_
*395 _0376_
*396 _0377_
*397 _0378_
*398 _0379_
*399 _0380_
*400 _0381_
*401 _0382_
*402 _0383_
*403 _0384_
*404 _0385_
*405 _0386_
*406 _0387_
*407 _0388_
*408 _0389_
*409 _0390_
*410 _0391_
*411 _0392_
*412 _0393_
*413 _0394_
*414 _0395_
*415 _0396_
*416 _0397_
*417 _0398_
*418 _0399_
*419 _0400_
*420 _0401_
*421 _0402_
*422 _0403_
*423 _0404_
*424 _0405_
*425 _0406_
*426 _0407_
*427 _0408_
*428 _0409_
*429 _0410_
*430 _0411_
*431 _0412_
*432 _0413_
*433 _0414_
*434 _0415_
*435 _0416_
*436 _0417_
*437 _0418_
*438 _0419_
*439 _0420_
*440 _0421_
*441 _0422_
*442 _0423_
*443 _0424_
*444 _0425_
*445 _0426_
*446 _0427_
*447 _0428_
*448 _0429_
*449 _0430_
*450 _0431_
*451 _0432_
*452 _0433_
*453 _0434_
*454 _0435_
*455 _0436_
*456 _0437_
*457 _0438_
*458 _0439_
*459 _0440_
*460 _0441_
*461 _0442_
*462 _0443_
*463 _0444_
*464 _0445_
*465 _0446_
*466 _0447_
*467 _0448_
*468 _0449_
*469 _0450_
*470 _0451_
*471 _0452_
*472 _0453_
*473 _0454_
*474 _0455_
*475 _0456_
*476 _0457_
*477 _0458_
*478 _0459_
*479 _0460_
*480 _0461_
*481 _0462_
*482 _0463_
*483 _0464_
*484 _0465_
*485 _0466_
*486 _0467_
*487 _0468_
*488 _0469_
*489 _0470_
*490 _0471_
*491 _0472_
*492 _0473_
*493 _0474_
*494 _0475_
*495 _0476_
*496 _0477_
*497 _0478_
*498 _0479_
*499 _0480_
*500 _0481_
*501 _0482_
*502 _0483_
*503 _0484_
*504 _0485_
*505 _0486_
*506 _0487_
*507 _0488_
*508 _0489_
*509 _0490_
*510 _0491_
*511 _0492_
*512 _0493_
*513 _0494_
*514 _0495_
*515 _0496_
*516 _0497_
*517 _0498_
*518 _0499_
*519 _0500_
*520 _0501_
*521 _0502_
*522 _0503_
*523 _0504_
*524 _0505_
*525 _0506_
*526 _0507_
*527 _0508_
*528 _0509_
*529 _0510_
*530 _0511_
*531 _0512_
*532 _0513_
*533 _0514_
*534 _0515_
*535 _0516_
*536 _0517_
*537 _0518_
*538 _0519_
*539 _0520_
*540 _0521_
*541 _0522_
*542 _0523_
*543 _0524_
*544 _0525_
*545 _0526_
*546 _0527_
*547 _0528_
*548 _0529_
*549 _0530_
*550 _0531_
*551 _0532_
*552 _0533_
*553 _0534_
*554 _0535_
*555 _0536_
*556 _0537_
*557 _0538_
*558 _0539_
*559 _0540_
*560 _0541_
*561 _0542_
*562 _0543_
*563 _0544_
*564 _0545_
*565 _0546_
*566 _0547_
*567 _0548_
*568 _0549_
*569 _0550_
*570 _0551_
*571 _0552_
*572 _0553_
*573 _0554_
*574 _0555_
*575 _0556_
*576 _0557_
*577 _0558_
*578 _0559_
*579 _0560_
*580 _0561_
*581 _0562_
*582 _0563_
*583 _0564_
*584 _0565_
*585 _0566_
*586 _0567_
*587 _0568_
*588 _0569_
*589 _0570_
*590 _0571_
*591 _0572_
*592 _0573_
*593 _0574_
*594 _0575_
*595 _0576_
*596 _0577_
*597 _0578_
*598 _0579_
*599 _0580_
*600 _0581_
*601 _0582_
*602 _0583_
*603 _0584_
*604 _0585_
*605 _0586_
*606 _0587_
*607 _0588_
*608 _0589_
*609 _0590_
*610 _0591_
*611 _0592_
*612 _0593_
*613 _0594_
*614 _0595_
*615 _0596_
*616 _0597_
*617 _0598_
*618 _0599_
*619 _0600_
*620 _0601_
*621 _0602_
*622 _0603_
*623 _0604_
*624 _0605_
*625 _0606_
*626 _0607_
*627 _0608_
*628 _0609_
*629 _0610_
*630 _0611_
*631 _0612_
*632 _0613_
*633 _0614_
*634 _0615_
*635 _0616_
*636 _0617_
*637 _0618_
*638 _0619_
*639 _0620_
*640 _0621_
*641 _0622_
*642 _0623_
*643 _0624_
*644 _0625_
*645 _0626_
*646 _0627_
*647 _0628_
*648 _0629_
*649 _0630_
*650 _0631_
*651 _0632_
*652 _0633_
*653 _0634_
*654 _0635_
*655 _0636_
*656 _0637_
*657 _0638_
*658 _0639_
*659 _0640_
*660 _0641_
*661 _0642_
*662 _0643_
*663 _0644_
*664 _0645_
*665 _0646_
*666 _0647_
*667 _0648_
*668 _0649_
*669 _0650_
*670 _0651_
*671 _0652_
*672 _0653_
*673 _0654_
*674 _0655_
*675 _0656_
*676 _0657_
*677 _0658_
*678 _0659_
*679 _0660_
*680 _0661_
*681 _0662_
*682 _0663_
*683 _0664_
*684 _0665_
*685 _0666_
*686 _0667_
*687 _0668_
*688 _0669_
*689 _0670_
*690 _0671_
*691 _0672_
*692 _0673_
*693 _0674_
*694 _0675_
*695 _0676_
*696 _0677_
*697 _0678_
*698 _0679_
*699 _0680_
*700 _0681_
*701 _0682_
*702 _0683_
*703 _0684_
*704 _0685_
*705 _0686_
*706 _0687_
*707 _0688_
*708 _0689_
*709 _0690_
*710 _0691_
*711 _0692_
*712 _0693_
*713 _0694_
*714 _0695_
*715 _0696_
*716 _0697_
*717 _0698_
*718 _0699_
*719 _0700_
*720 _0701_
*721 _0702_
*722 _0703_
*723 _0704_
*724 _0705_
*725 _0706_
*726 _0707_
*727 _0708_
*728 _0709_
*729 _0710_
*730 _0711_
*731 _0712_
*732 _0713_
*733 _0714_
*734 _0715_
*735 _0716_
*736 _0717_
*737 _0718_
*738 _0719_
*739 _0720_
*740 _0721_
*741 _0722_
*742 _0723_
*743 _0724_
*744 _0725_
*745 _0726_
*746 _0727_
*747 _0728_
*748 _0729_
*749 _0730_
*750 _0731_
*751 _0732_
*752 _0733_
*753 _0734_
*754 _0735_
*755 _0736_
*756 _0737_
*757 _0738_
*758 _0739_
*759 _0740_
*760 _0741_
*761 _0742_
*762 _0743_
*763 _0744_
*764 _0745_
*765 _0746_
*766 _0747_
*767 _0748_
*768 _0749_
*769 _0750_
*770 _0751_
*771 _0752_
*772 _0753_
*773 _0754_
*774 _0755_
*775 _0756_
*776 _0757_
*777 _0758_
*778 _0759_
*779 _0760_
*780 _0761_
*781 _0762_
*782 _0763_
*783 _0764_
*784 _0765_
*785 _0766_
*786 _0767_
*787 _0768_
*788 _0769_
*789 _0770_
*790 _0771_
*791 _0772_
*792 _0773_
*793 _0774_
*794 _0775_
*795 _0776_
*796 _0777_
*797 _0778_
*798 _0779_
*799 _0780_
*800 _0781_
*801 _0782_
*802 _0783_
*803 _0784_
*804 _0785_
*805 _0786_
*806 _0787_
*807 _0788_
*808 _0789_
*809 _0790_
*810 _0791_
*811 _0792_
*812 _0793_
*813 _0794_
*814 _0795_
*815 _0796_
*816 _0797_
*817 _0798_
*818 _0799_
*819 _0800_
*820 _0801_
*821 _0802_
*822 _0803_
*823 _0804_
*824 _0805_
*825 _0806_
*826 _0807_
*827 _0808_
*828 _0809_
*829 _0810_
*830 _0811_
*831 _0812_
*832 _0813_
*833 _0814_
*834 _0815_
*835 _0816_
*836 _0817_
*837 _0818_
*838 _0819_
*839 _0820_
*840 _0821_
*841 _0822_
*842 _0823_
*843 _0824_
*844 _0825_
*845 _0826_
*846 _0827_
*847 _0828_
*848 _0829_
*849 _0830_
*850 _0831_
*851 _0832_
*852 _0833_
*853 _0834_
*854 _0835_
*855 _0836_
*856 _0837_
*857 _0838_
*858 _0839_
*859 _0840_
*860 _0841_
*861 _0842_
*862 clknet_0_io_in[0]
*863 clknet_4_0_0_io_in[0]
*864 clknet_4_10_0_io_in[0]
*865 clknet_4_11_0_io_in[0]
*866 clknet_4_12_0_io_in[0]
*867 clknet_4_13_0_io_in[0]
*868 clknet_4_14_0_io_in[0]
*869 clknet_4_15_0_io_in[0]
*870 clknet_4_1_0_io_in[0]
*871 clknet_4_2_0_io_in[0]
*872 clknet_4_3_0_io_in[0]
*873 clknet_4_4_0_io_in[0]
*874 clknet_4_5_0_io_in[0]
*875 clknet_4_6_0_io_in[0]
*876 clknet_4_7_0_io_in[0]
*877 clknet_4_8_0_io_in[0]
*878 clknet_4_9_0_io_in[0]
*879 cpu\.a_reg\[0\]
*880 cpu\.a_reg\[10\]
*881 cpu\.a_reg\[11\]
*882 cpu\.a_reg\[12\]
*883 cpu\.a_reg\[13\]
*884 cpu\.a_reg\[14\]
*885 cpu\.a_reg\[15\]
*886 cpu\.a_reg\[1\]
*887 cpu\.a_reg\[2\]
*888 cpu\.a_reg\[3\]
*889 cpu\.a_reg\[4\]
*890 cpu\.a_reg\[5\]
*891 cpu\.a_reg\[6\]
*892 cpu\.a_reg\[7\]
*893 cpu\.a_reg\[8\]
*894 cpu\.a_reg\[9\]
*895 cpu\.alu\.alu\.x\[0\]
*896 cpu\.alu\.alu\.x\[10\]
*897 cpu\.alu\.alu\.x\[11\]
*898 cpu\.alu\.alu\.x\[12\]
*899 cpu\.alu\.alu\.x\[13\]
*900 cpu\.alu\.alu\.x\[14\]
*901 cpu\.alu\.alu\.x\[15\]
*902 cpu\.alu\.alu\.x\[1\]
*903 cpu\.alu\.alu\.x\[2\]
*904 cpu\.alu\.alu\.x\[3\]
*905 cpu\.alu\.alu\.x\[4\]
*906 cpu\.alu\.alu\.x\[5\]
*907 cpu\.alu\.alu\.x\[6\]
*908 cpu\.alu\.alu\.x\[7\]
*909 cpu\.alu\.alu\.x\[8\]
*910 cpu\.alu\.alu\.x\[9\]
*911 cpu\.memory_i\[0\]
*912 cpu\.memory_i\[10\]
*913 cpu\.memory_i\[11\]
*914 cpu\.memory_i\[12\]
*915 cpu\.memory_i\[13\]
*916 cpu\.memory_i\[14\]
*917 cpu\.memory_i\[15\]
*918 cpu\.memory_i\[1\]
*919 cpu\.memory_i\[2\]
*920 cpu\.memory_i\[3\]
*921 cpu\.memory_i\[4\]
*922 cpu\.memory_i\[5\]
*923 cpu\.memory_i\[6\]
*924 cpu\.memory_i\[7\]
*925 cpu\.memory_i\[8\]
*926 cpu\.memory_i\[9\]
*927 cpu\.next_instruction_addr_o\[0\]
*928 cpu\.next_instruction_addr_o\[1\]
*929 lfsr\.lfsr\[0\]
*930 lfsr\.lfsr\[1\]
*931 lfsr\.lfsr\[2\]
*932 lfsr\.lfsr\[3\]
*933 lfsr\.lfsr\[4\]
*934 lfsr\.taps\[0\]
*935 lfsr\.taps\[1\]
*936 lfsr\.taps\[2\]
*937 lfsr\.taps\[3\]
*938 lfsr\.taps\[4\]
*939 lfsr\.tick_count\[0\]
*940 lfsr\.tick_count\[1\]
*941 lfsr\.tick_count\[2\]
*942 lfsr\.tick_count\[3\]
*943 lfsr\.tick_count\[4\]
*944 lfsr\.tick_count\[5\]
*945 lfsr\.tick_count\[6\]
*946 lfsr\.tick_count\[7\]
*947 lfsr\.tick_count\[8\]
*948 lfsr\.tick_count\[9\]
*949 net1
*950 net2
*951 net3
*952 net4
*953 net5
*954 net6
*955 net7
*956 net8
*957 prom\[0\]\[0\]
*958 prom\[0\]\[10\]
*959 prom\[0\]\[11\]
*960 prom\[0\]\[12\]
*961 prom\[0\]\[13\]
*962 prom\[0\]\[14\]
*963 prom\[0\]\[15\]
*964 prom\[0\]\[1\]
*965 prom\[0\]\[2\]
*966 prom\[0\]\[3\]
*967 prom\[0\]\[4\]
*968 prom\[0\]\[5\]
*969 prom\[0\]\[6\]
*970 prom\[0\]\[7\]
*971 prom\[0\]\[8\]
*972 prom\[0\]\[9\]
*973 prom\[1\]\[0\]
*974 prom\[1\]\[10\]
*975 prom\[1\]\[11\]
*976 prom\[1\]\[12\]
*977 prom\[1\]\[13\]
*978 prom\[1\]\[14\]
*979 prom\[1\]\[15\]
*980 prom\[1\]\[1\]
*981 prom\[1\]\[2\]
*982 prom\[1\]\[3\]
*983 prom\[1\]\[4\]
*984 prom\[1\]\[5\]
*985 prom\[1\]\[6\]
*986 prom\[1\]\[7\]
*987 prom\[1\]\[8\]
*988 prom\[1\]\[9\]
*989 prom\[2\]\[0\]
*990 prom\[2\]\[10\]
*991 prom\[2\]\[11\]
*992 prom\[2\]\[12\]
*993 prom\[2\]\[13\]
*994 prom\[2\]\[14\]
*995 prom\[2\]\[15\]
*996 prom\[2\]\[1\]
*997 prom\[2\]\[2\]
*998 prom\[2\]\[3\]
*999 prom\[2\]\[4\]
*1000 prom\[2\]\[5\]
*1001 prom\[2\]\[6\]
*1002 prom\[2\]\[7\]
*1003 prom\[2\]\[8\]
*1004 prom\[2\]\[9\]
*1005 prom\[3\]\[0\]
*1006 prom\[3\]\[10\]
*1007 prom\[3\]\[11\]
*1008 prom\[3\]\[12\]
*1009 prom\[3\]\[13\]
*1010 prom\[3\]\[14\]
*1011 prom\[3\]\[15\]
*1012 prom\[3\]\[1\]
*1013 prom\[3\]\[2\]
*1014 prom\[3\]\[3\]
*1015 prom\[3\]\[4\]
*1016 prom\[3\]\[5\]
*1017 prom\[3\]\[6\]
*1018 prom\[3\]\[7\]
*1019 prom\[3\]\[8\]
*1020 prom\[3\]\[9\]
*1021 seven_segment\.segments_low\[0\]
*1022 seven_segment\.segments_low\[1\]
*1023 seven_segment\.segments_low\[2\]
*1024 seven_segment\.segments_low\[3\]
*1025 seven_segment\.segments_low\[4\]
*1026 seven_segment\.segments_low\[5\]
*1027 seven_segment\.segments_low\[6\]
*1028 uart\.rx
*1029 uart\.rx_bit_count\[0\]
*1030 uart\.rx_bit_count\[1\]
*1031 uart\.rx_bit_count\[2\]
*1032 uart\.rx_data\[0\]
*1033 uart\.rx_data\[1\]
*1034 uart\.rx_data\[2\]
*1035 uart\.rx_data\[3\]
*1036 uart\.rx_data\[4\]
*1037 uart\.rx_data\[5\]
*1038 uart\.rx_data\[6\]
*1039 uart\.rx_data\[7\]
*1040 uart\.rx_intermediate
*1041 uart\.rx_ready_o
*1042 uart\.rx_state\[0\]
*1043 uart\.rx_state\[2\]
*1044 uart\.rx_state\[3\]
*1045 uart\.rx_state\[5\]
*1046 uart\.rx_tick_count\[0\]
*1047 uart\.rx_tick_count\[1\]
*1048 uart\.rx_tick_count\[2\]
*1049 uart_state
*1050 uart_write_address\[0\]
*1051 uart_write_address\[1\]
*1052 FILLER_0_109
*1053 FILLER_0_113
*1054 FILLER_0_127
*1055 FILLER_0_138
*1056 FILLER_0_141
*1057 FILLER_0_149
*1058 FILLER_0_160
*1059 FILLER_0_169
*1060 FILLER_0_174
*1061 FILLER_0_181
*1062 FILLER_0_188
*1063 FILLER_0_197
*1064 FILLER_0_209
*1065 FILLER_0_21
*1066 FILLER_0_221
*1067 FILLER_0_225
*1068 FILLER_0_237
*1069 FILLER_0_249
*1070 FILLER_0_253
*1071 FILLER_0_265
*1072 FILLER_0_27
*1073 FILLER_0_277
*1074 FILLER_0_281
*1075 FILLER_0_29
*1076 FILLER_0_293
*1077 FILLER_0_3
*1078 FILLER_0_35
*1079 FILLER_0_39
*1080 FILLER_0_46
*1081 FILLER_0_50
*1082 FILLER_0_54
*1083 FILLER_0_57
*1084 FILLER_0_64
*1085 FILLER_0_73
*1086 FILLER_0_77
*1087 FILLER_0_82
*1088 FILLER_0_85
*1089 FILLER_0_95
*1090 FILLER_10_100
*1091 FILLER_10_107
*1092 FILLER_10_115
*1093 FILLER_10_122
*1094 FILLER_10_128
*1095 FILLER_10_138
*1096 FILLER_10_141
*1097 FILLER_10_154
*1098 FILLER_10_162
*1099 FILLER_10_174
*1100 FILLER_10_18
*1101 FILLER_10_194
*1102 FILLER_10_197
*1103 FILLER_10_208
*1104 FILLER_10_228
*1105 FILLER_10_232
*1106 FILLER_10_242
*1107 FILLER_10_250
*1108 FILLER_10_253
*1109 FILLER_10_26
*1110 FILLER_10_265
*1111 FILLER_10_277
*1112 FILLER_10_289
*1113 FILLER_10_29
*1114 FILLER_10_297
*1115 FILLER_10_3
*1116 FILLER_10_35
*1117 FILLER_10_55
*1118 FILLER_10_76
*1119 FILLER_10_85
*1120 FILLER_10_96
*1121 FILLER_11_109
*1122 FILLER_11_113
*1123 FILLER_11_119
*1124 FILLER_11_139
*1125 FILLER_11_15
*1126 FILLER_11_159
*1127 FILLER_11_166
*1128 FILLER_11_169
*1129 FILLER_11_187
*1130 FILLER_11_191
*1131 FILLER_11_203
*1132 FILLER_11_211
*1133 FILLER_11_222
*1134 FILLER_11_225
*1135 FILLER_11_231
*1136 FILLER_11_248
*1137 FILLER_11_255
*1138 FILLER_11_267
*1139 FILLER_11_279
*1140 FILLER_11_281
*1141 FILLER_11_293
*1142 FILLER_11_3
*1143 FILLER_11_31
*1144 FILLER_11_35
*1145 FILLER_11_44
*1146 FILLER_11_54
*1147 FILLER_11_57
*1148 FILLER_11_70
*1149 FILLER_11_83
*1150 FILLER_11_98
*1151 FILLER_12_106
*1152 FILLER_12_112
*1153 FILLER_12_118
*1154 FILLER_12_138
*1155 FILLER_12_141
*1156 FILLER_12_148
*1157 FILLER_12_156
*1158 FILLER_12_164
*1159 FILLER_12_177
*1160 FILLER_12_194
*1161 FILLER_12_197
*1162 FILLER_12_203
*1163 FILLER_12_21
*1164 FILLER_12_220
*1165 FILLER_12_227
*1166 FILLER_12_242
*1167 FILLER_12_250
*1168 FILLER_12_253
*1169 FILLER_12_265
*1170 FILLER_12_27
*1171 FILLER_12_277
*1172 FILLER_12_289
*1173 FILLER_12_29
*1174 FILLER_12_297
*1175 FILLER_12_3
*1176 FILLER_12_38
*1177 FILLER_12_58
*1178 FILLER_12_67
*1179 FILLER_12_80
*1180 FILLER_12_85
*1181 FILLER_12_95
*1182 FILLER_12_99
*1183 FILLER_13_103
*1184 FILLER_13_110
*1185 FILLER_13_113
*1186 FILLER_13_13
*1187 FILLER_13_132
*1188 FILLER_13_139
*1189 FILLER_13_145
*1190 FILLER_13_162
*1191 FILLER_13_169
*1192 FILLER_13_175
*1193 FILLER_13_194
*1194 FILLER_13_214
*1195 FILLER_13_221
*1196 FILLER_13_225
*1197 FILLER_13_233
*1198 FILLER_13_250
*1199 FILLER_13_262
*1200 FILLER_13_274
*1201 FILLER_13_281
*1202 FILLER_13_293
*1203 FILLER_13_3
*1204 FILLER_13_33
*1205 FILLER_13_45
*1206 FILLER_13_54
*1207 FILLER_13_57
*1208 FILLER_13_79
*1209 FILLER_13_86
*1210 FILLER_14_106
*1211 FILLER_14_117
*1212 FILLER_14_124
*1213 FILLER_14_128
*1214 FILLER_14_138
*1215 FILLER_14_141
*1216 FILLER_14_164
*1217 FILLER_14_184
*1218 FILLER_14_19
*1219 FILLER_14_194
*1220 FILLER_14_197
*1221 FILLER_14_208
*1222 FILLER_14_215
*1223 FILLER_14_219
*1224 FILLER_14_238
*1225 FILLER_14_245
*1226 FILLER_14_251
*1227 FILLER_14_253
*1228 FILLER_14_26
*1229 FILLER_14_265
*1230 FILLER_14_277
*1231 FILLER_14_289
*1232 FILLER_14_29
*1233 FILLER_14_297
*1234 FILLER_14_3
*1235 FILLER_14_34
*1236 FILLER_14_47
*1237 FILLER_14_51
*1238 FILLER_14_68
*1239 FILLER_14_81
*1240 FILLER_14_85
*1241 FILLER_14_9
*1242 FILLER_14_96
*1243 FILLER_15_100
*1244 FILLER_15_110
*1245 FILLER_15_113
*1246 FILLER_15_117
*1247 FILLER_15_121
*1248 FILLER_15_134
*1249 FILLER_15_142
*1250 FILLER_15_148
*1251 FILLER_15_161
*1252 FILLER_15_167
*1253 FILLER_15_169
*1254 FILLER_15_182
*1255 FILLER_15_189
*1256 FILLER_15_208
*1257 FILLER_15_21
*1258 FILLER_15_221
*1259 FILLER_15_225
*1260 FILLER_15_247
*1261 FILLER_15_259
*1262 FILLER_15_271
*1263 FILLER_15_279
*1264 FILLER_15_281
*1265 FILLER_15_293
*1266 FILLER_15_3
*1267 FILLER_15_30
*1268 FILLER_15_50
*1269 FILLER_15_57
*1270 FILLER_15_63
*1271 FILLER_15_73
*1272 FILLER_15_77
*1273 FILLER_15_94
*1274 FILLER_16_111
*1275 FILLER_16_131
*1276 FILLER_16_138
*1277 FILLER_16_141
*1278 FILLER_16_15
*1279 FILLER_16_152
*1280 FILLER_16_164
*1281 FILLER_16_172
*1282 FILLER_16_189
*1283 FILLER_16_195
*1284 FILLER_16_197
*1285 FILLER_16_21
*1286 FILLER_16_215
*1287 FILLER_16_235
*1288 FILLER_16_248
*1289 FILLER_16_253
*1290 FILLER_16_26
*1291 FILLER_16_265
*1292 FILLER_16_277
*1293 FILLER_16_289
*1294 FILLER_16_29
*1295 FILLER_16_297
*1296 FILLER_16_3
*1297 FILLER_16_43
*1298 FILLER_16_47
*1299 FILLER_16_51
*1300 FILLER_16_71
*1301 FILLER_16_82
*1302 FILLER_16_85
*1303 FILLER_16_91
*1304 FILLER_17_103
*1305 FILLER_17_11
*1306 FILLER_17_110
*1307 FILLER_17_113
*1308 FILLER_17_124
*1309 FILLER_17_132
*1310 FILLER_17_136
*1311 FILLER_17_156
*1312 FILLER_17_163
*1313 FILLER_17_167
*1314 FILLER_17_169
*1315 FILLER_17_175
*1316 FILLER_17_188
*1317 FILLER_17_197
*1318 FILLER_17_205
*1319 FILLER_17_209
*1320 FILLER_17_222
*1321 FILLER_17_225
*1322 FILLER_17_231
*1323 FILLER_17_241
*1324 FILLER_17_248
*1325 FILLER_17_255
*1326 FILLER_17_267
*1327 FILLER_17_279
*1328 FILLER_17_281
*1329 FILLER_17_293
*1330 FILLER_17_3
*1331 FILLER_17_31
*1332 FILLER_17_39
*1333 FILLER_17_47
*1334 FILLER_17_54
*1335 FILLER_17_57
*1336 FILLER_17_66
*1337 FILLER_17_7
*1338 FILLER_17_88
*1339 FILLER_18_121
*1340 FILLER_18_138
*1341 FILLER_18_141
*1342 FILLER_18_164
*1343 FILLER_18_184
*1344 FILLER_18_190
*1345 FILLER_18_194
*1346 FILLER_18_197
*1347 FILLER_18_203
*1348 FILLER_18_21
*1349 FILLER_18_220
*1350 FILLER_18_228
*1351 FILLER_18_236
*1352 FILLER_18_247
*1353 FILLER_18_251
*1354 FILLER_18_253
*1355 FILLER_18_265
*1356 FILLER_18_27
*1357 FILLER_18_277
*1358 FILLER_18_289
*1359 FILLER_18_29
*1360 FILLER_18_297
*1361 FILLER_18_3
*1362 FILLER_18_34
*1363 FILLER_18_47
*1364 FILLER_18_55
*1365 FILLER_18_72
*1366 FILLER_18_78
*1367 FILLER_18_82
*1368 FILLER_18_85
*1369 FILLER_18_96
*1370 FILLER_19_106
*1371 FILLER_19_113
*1372 FILLER_19_118
*1373 FILLER_19_122
*1374 FILLER_19_139
*1375 FILLER_19_146
*1376 FILLER_19_153
*1377 FILLER_19_166
*1378 FILLER_19_169
*1379 FILLER_19_17
*1380 FILLER_19_174
*1381 FILLER_19_178
*1382 FILLER_19_197
*1383 FILLER_19_217
*1384 FILLER_19_223
*1385 FILLER_19_225
*1386 FILLER_19_245
*1387 FILLER_19_25
*1388 FILLER_19_265
*1389 FILLER_19_277
*1390 FILLER_19_281
*1391 FILLER_19_293
*1392 FILLER_19_3
*1393 FILLER_19_38
*1394 FILLER_19_50
*1395 FILLER_19_57
*1396 FILLER_19_62
*1397 FILLER_19_7
*1398 FILLER_19_79
*1399 FILLER_19_99
*1400 FILLER_1_105
*1401 FILLER_1_111
*1402 FILLER_1_113
*1403 FILLER_1_131
*1404 FILLER_1_155
*1405 FILLER_1_164
*1406 FILLER_1_169
*1407 FILLER_1_188
*1408 FILLER_1_195
*1409 FILLER_1_207
*1410 FILLER_1_219
*1411 FILLER_1_223
*1412 FILLER_1_225
*1413 FILLER_1_237
*1414 FILLER_1_249
*1415 FILLER_1_261
*1416 FILLER_1_273
*1417 FILLER_1_279
*1418 FILLER_1_281
*1419 FILLER_1_29
*1420 FILLER_1_293
*1421 FILLER_1_3
*1422 FILLER_1_49
*1423 FILLER_1_55
*1424 FILLER_1_57
*1425 FILLER_1_81
*1426 FILLER_1_9
*1427 FILLER_20_104
*1428 FILLER_20_124
*1429 FILLER_20_132
*1430 FILLER_20_141
*1431 FILLER_20_15
*1432 FILLER_20_152
*1433 FILLER_20_160
*1434 FILLER_20_166
*1435 FILLER_20_183
*1436 FILLER_20_187
*1437 FILLER_20_194
*1438 FILLER_20_197
*1439 FILLER_20_208
*1440 FILLER_20_218
*1441 FILLER_20_243
*1442 FILLER_20_250
*1443 FILLER_20_253
*1444 FILLER_20_26
*1445 FILLER_20_265
*1446 FILLER_20_277
*1447 FILLER_20_289
*1448 FILLER_20_29
*1449 FILLER_20_297
*1450 FILLER_20_3
*1451 FILLER_20_39
*1452 FILLER_20_45
*1453 FILLER_20_62
*1454 FILLER_20_82
*1455 FILLER_20_85
*1456 FILLER_20_91
*1457 FILLER_21_110
*1458 FILLER_21_113
*1459 FILLER_21_124
*1460 FILLER_21_13
*1461 FILLER_21_132
*1462 FILLER_21_149
*1463 FILLER_21_162
*1464 FILLER_21_169
*1465 FILLER_21_181
*1466 FILLER_21_189
*1467 FILLER_21_199
*1468 FILLER_21_207
*1469 FILLER_21_217
*1470 FILLER_21_223
*1471 FILLER_21_225
*1472 FILLER_21_235
*1473 FILLER_21_243
*1474 FILLER_21_255
*1475 FILLER_21_26
*1476 FILLER_21_267
*1477 FILLER_21_279
*1478 FILLER_21_281
*1479 FILLER_21_293
*1480 FILLER_21_3
*1481 FILLER_21_34
*1482 FILLER_21_52
*1483 FILLER_21_57
*1484 FILLER_21_68
*1485 FILLER_21_7
*1486 FILLER_21_90
*1487 FILLER_22_116
*1488 FILLER_22_136
*1489 FILLER_22_141
*1490 FILLER_22_145
*1491 FILLER_22_162
*1492 FILLER_22_182
*1493 FILLER_22_192
*1494 FILLER_22_197
*1495 FILLER_22_21
*1496 FILLER_22_215
*1497 FILLER_22_228
*1498 FILLER_22_243
*1499 FILLER_22_251
*1500 FILLER_22_253
*1501 FILLER_22_265
*1502 FILLER_22_27
*1503 FILLER_22_277
*1504 FILLER_22_289
*1505 FILLER_22_29
*1506 FILLER_22_297
*1507 FILLER_22_3
*1508 FILLER_22_35
*1509 FILLER_22_45
*1510 FILLER_22_69
*1511 FILLER_22_76
*1512 FILLER_22_85
*1513 FILLER_22_96
*1514 FILLER_23_102
*1515 FILLER_23_106
*1516 FILLER_23_110
*1517 FILLER_23_113
*1518 FILLER_23_118
*1519 FILLER_23_126
*1520 FILLER_23_150
*1521 FILLER_23_160
*1522 FILLER_23_169
*1523 FILLER_23_18
*1524 FILLER_23_180
*1525 FILLER_23_187
*1526 FILLER_23_191
*1527 FILLER_23_195
*1528 FILLER_23_203
*1529 FILLER_23_222
*1530 FILLER_23_225
*1531 FILLER_23_231
*1532 FILLER_23_248
*1533 FILLER_23_255
*1534 FILLER_23_26
*1535 FILLER_23_267
*1536 FILLER_23_279
*1537 FILLER_23_281
*1538 FILLER_23_293
*1539 FILLER_23_3
*1540 FILLER_23_36
*1541 FILLER_23_48
*1542 FILLER_23_57
*1543 FILLER_23_61
*1544 FILLER_23_71
*1545 FILLER_23_78
*1546 FILLER_24_104
*1547 FILLER_24_116
*1548 FILLER_24_123
*1549 FILLER_24_136
*1550 FILLER_24_141
*1551 FILLER_24_15
*1552 FILLER_24_164
*1553 FILLER_24_172
*1554 FILLER_24_178
*1555 FILLER_24_186
*1556 FILLER_24_194
*1557 FILLER_24_197
*1558 FILLER_24_215
*1559 FILLER_24_227
*1560 FILLER_24_235
*1561 FILLER_24_240
*1562 FILLER_24_253
*1563 FILLER_24_26
*1564 FILLER_24_265
*1565 FILLER_24_277
*1566 FILLER_24_289
*1567 FILLER_24_29
*1568 FILLER_24_297
*1569 FILLER_24_3
*1570 FILLER_24_34
*1571 FILLER_24_46
*1572 FILLER_24_68
*1573 FILLER_24_72
*1574 FILLER_24_82
*1575 FILLER_24_85
*1576 FILLER_24_92
*1577 FILLER_25_110
*1578 FILLER_25_113
*1579 FILLER_25_120
*1580 FILLER_25_133
*1581 FILLER_25_139
*1582 FILLER_25_161
*1583 FILLER_25_167
*1584 FILLER_25_169
*1585 FILLER_25_194
*1586 FILLER_25_207
*1587 FILLER_25_21
*1588 FILLER_25_214
*1589 FILLER_25_221
*1590 FILLER_25_225
*1591 FILLER_25_245
*1592 FILLER_25_252
*1593 FILLER_25_259
*1594 FILLER_25_271
*1595 FILLER_25_279
*1596 FILLER_25_281
*1597 FILLER_25_293
*1598 FILLER_25_3
*1599 FILLER_25_34
*1600 FILLER_25_48
*1601 FILLER_25_57
*1602 FILLER_25_63
*1603 FILLER_25_85
*1604 FILLER_25_93
*1605 FILLER_26_103
*1606 FILLER_26_111
*1607 FILLER_26_116
*1608 FILLER_26_13
*1609 FILLER_26_136
*1610 FILLER_26_141
*1611 FILLER_26_145
*1612 FILLER_26_152
*1613 FILLER_26_172
*1614 FILLER_26_194
*1615 FILLER_26_197
*1616 FILLER_26_203
*1617 FILLER_26_216
*1618 FILLER_26_241
*1619 FILLER_26_249
*1620 FILLER_26_253
*1621 FILLER_26_26
*1622 FILLER_26_264
*1623 FILLER_26_276
*1624 FILLER_26_288
*1625 FILLER_26_29
*1626 FILLER_26_296
*1627 FILLER_26_3
*1628 FILLER_26_35
*1629 FILLER_26_53
*1630 FILLER_26_7
*1631 FILLER_26_70
*1632 FILLER_26_77
*1633 FILLER_26_83
*1634 FILLER_26_85
*1635 FILLER_27_103
*1636 FILLER_27_110
*1637 FILLER_27_113
*1638 FILLER_27_124
*1639 FILLER_27_136
*1640 FILLER_27_149
*1641 FILLER_27_166
*1642 FILLER_27_169
*1643 FILLER_27_176
*1644 FILLER_27_183
*1645 FILLER_27_190
*1646 FILLER_27_201
*1647 FILLER_27_221
*1648 FILLER_27_225
*1649 FILLER_27_231
*1650 FILLER_27_237
*1651 FILLER_27_25
*1652 FILLER_27_254
*1653 FILLER_27_266
*1654 FILLER_27_278
*1655 FILLER_27_281
*1656 FILLER_27_293
*1657 FILLER_27_3
*1658 FILLER_27_31
*1659 FILLER_27_48
*1660 FILLER_27_57
*1661 FILLER_27_68
*1662 FILLER_27_90
*1663 FILLER_28_112
*1664 FILLER_28_137
*1665 FILLER_28_141
*1666 FILLER_28_159
*1667 FILLER_28_169
*1668 FILLER_28_173
*1669 FILLER_28_18
*1670 FILLER_28_191
*1671 FILLER_28_195
*1672 FILLER_28_197
*1673 FILLER_28_215
*1674 FILLER_28_223
*1675 FILLER_28_228
*1676 FILLER_28_240
*1677 FILLER_28_253
*1678 FILLER_28_26
*1679 FILLER_28_265
*1680 FILLER_28_277
*1681 FILLER_28_289
*1682 FILLER_28_29
*1683 FILLER_28_297
*1684 FILLER_28_3
*1685 FILLER_28_41
*1686 FILLER_28_48
*1687 FILLER_28_54
*1688 FILLER_28_71
*1689 FILLER_28_8
*1690 FILLER_28_83
*1691 FILLER_28_85
*1692 FILLER_28_90
*1693 FILLER_29_103
*1694 FILLER_29_110
*1695 FILLER_29_113
*1696 FILLER_29_127
*1697 FILLER_29_135
*1698 FILLER_29_143
*1699 FILLER_29_150
*1700 FILLER_29_166
*1701 FILLER_29_169
*1702 FILLER_29_179
*1703 FILLER_29_190
*1704 FILLER_29_199
*1705 FILLER_29_209
*1706 FILLER_29_21
*1707 FILLER_29_222
*1708 FILLER_29_225
*1709 FILLER_29_235
*1710 FILLER_29_247
*1711 FILLER_29_259
*1712 FILLER_29_271
*1713 FILLER_29_279
*1714 FILLER_29_281
*1715 FILLER_29_293
*1716 FILLER_29_3
*1717 FILLER_29_34
*1718 FILLER_29_47
*1719 FILLER_29_55
*1720 FILLER_29_57
*1721 FILLER_29_62
*1722 FILLER_29_74
*1723 FILLER_29_78
*1724 FILLER_29_95
*1725 FILLER_2_102
*1726 FILLER_2_108
*1727 FILLER_2_112
*1728 FILLER_2_118
*1729 FILLER_2_129
*1730 FILLER_2_136
*1731 FILLER_2_14
*1732 FILLER_2_141
*1733 FILLER_2_149
*1734 FILLER_2_155
*1735 FILLER_2_164
*1736 FILLER_2_185
*1737 FILLER_2_189
*1738 FILLER_2_193
*1739 FILLER_2_197
*1740 FILLER_2_205
*1741 FILLER_2_224
*1742 FILLER_2_236
*1743 FILLER_2_248
*1744 FILLER_2_253
*1745 FILLER_2_26
*1746 FILLER_2_265
*1747 FILLER_2_277
*1748 FILLER_2_289
*1749 FILLER_2_29
*1750 FILLER_2_297
*1751 FILLER_2_3
*1752 FILLER_2_41
*1753 FILLER_2_61
*1754 FILLER_2_65
*1755 FILLER_2_7
*1756 FILLER_2_72
*1757 FILLER_2_81
*1758 FILLER_2_85
*1759 FILLER_2_98
*1760 FILLER_30_116
*1761 FILLER_30_120
*1762 FILLER_30_137
*1763 FILLER_30_141
*1764 FILLER_30_159
*1765 FILLER_30_165
*1766 FILLER_30_17
*1767 FILLER_30_174
*1768 FILLER_30_181
*1769 FILLER_30_194
*1770 FILLER_30_197
*1771 FILLER_30_217
*1772 FILLER_30_229
*1773 FILLER_30_249
*1774 FILLER_30_253
*1775 FILLER_30_26
*1776 FILLER_30_265
*1777 FILLER_30_277
*1778 FILLER_30_289
*1779 FILLER_30_29
*1780 FILLER_30_297
*1781 FILLER_30_3
*1782 FILLER_30_37
*1783 FILLER_30_43
*1784 FILLER_30_60
*1785 FILLER_30_7
*1786 FILLER_30_81
*1787 FILLER_30_85
*1788 FILLER_30_93
*1789 FILLER_30_99
*1790 FILLER_31_110
*1791 FILLER_31_113
*1792 FILLER_31_119
*1793 FILLER_31_129
*1794 FILLER_31_135
*1795 FILLER_31_150
*1796 FILLER_31_165
*1797 FILLER_31_169
*1798 FILLER_31_17
*1799 FILLER_31_179
*1800 FILLER_31_187
*1801 FILLER_31_197
*1802 FILLER_31_217
*1803 FILLER_31_22
*1804 FILLER_31_223
*1805 FILLER_31_225
*1806 FILLER_31_243
*1807 FILLER_31_256
*1808 FILLER_31_269
*1809 FILLER_31_277
*1810 FILLER_31_281
*1811 FILLER_31_293
*1812 FILLER_31_3
*1813 FILLER_31_30
*1814 FILLER_31_39
*1815 FILLER_31_51
*1816 FILLER_31_55
*1817 FILLER_31_57
*1818 FILLER_31_75