*SPEF "ieee 1481-1999"
*DESIGN "meiniki_pi"
*DATE "11:11:11 Fri 11 11, 1111"
*VENDOR "OpenRCX"
*PROGRAM "Parallel Extraction"
*VERSION "1.0"
*DESIGN_FLOW "NAME_SCOPE LOCAL" "PIN_CAP NONE"
*DIVIDER /
*DELIMITER :
*BUS_DELIMITER []
*T_UNIT 1 NS
*C_UNIT 1 PF
*R_UNIT 1 OHM
*L_UNIT 1 HENRY

*NAME_MAP
*1 io_in[0]
*2 io_in[1]
*3 io_in[2]
*4 io_in[3]
*5 io_in[4]
*6 io_in[5]
*7 io_in[6]
*8 io_in[7]
*9 io_out[0]
*10 io_out[1]
*11 io_out[2]
*12 io_out[3]
*13 io_out[4]
*14 io_out[5]
*15 io_out[6]
*16 io_out[7]
*19 _0000_
*20 _0001_
*21 _0002_
*22 _0003_
*23 _0004_
*24 _0005_
*25 _0006_
*26 _0007_
*27 _0008_
*28 _0009_
*29 _0010_
*30 _0011_
*31 _0012_
*32 _0013_
*33 _0014_
*34 _0015_
*35 _0016_
*36 _0017_
*37 _0018_
*38 _0019_
*39 _0020_
*40 _0021_
*41 _0022_
*42 _0023_
*43 _0024_
*44 _0025_
*45 _0026_
*46 _0027_
*47 _0028_
*48 _0029_
*49 _0030_
*50 _0031_
*51 _0032_
*52 _0033_
*53 _0034_
*54 _0035_
*55 _0036_
*56 _0037_
*57 _0038_
*58 _0039_
*59 _0040_
*60 _0041_
*61 _0042_
*62 _0043_
*63 _0044_
*64 _0045_
*65 _0046_
*66 _0047_
*67 _0048_
*68 _0049_
*69 _0050_
*70 _0051_
*71 _0052_
*72 _0053_
*73 _0054_
*74 _0055_
*75 _0056_
*76 _0057_
*77 _0058_
*78 _0059_
*79 _0060_
*80 _0061_
*81 _0062_
*82 _0063_
*83 _0064_
*84 _0065_
*85 _0066_
*86 _0067_
*87 _0068_
*88 _0069_
*89 _0070_
*90 _0071_
*91 _0072_
*92 _0073_
*93 _0074_
*94 _0075_
*95 _0076_
*96 _0077_
*97 _0078_
*98 _0079_
*99 _0080_
*100 _0081_
*101 _0082_
*102 _0083_
*103 _0084_
*104 _0085_
*105 _0086_
*106 _0087_
*107 _0088_
*108 _0089_
*109 _0090_
*110 _0091_
*111 _0092_
*112 _0093_
*113 _0094_
*114 _0095_
*115 _0096_
*116 _0097_
*117 _0098_
*118 _0099_
*119 _0100_
*120 _0101_
*121 _0102_
*122 _0103_
*123 _0104_
*124 _0105_
*125 _0106_
*126 _0107_
*127 _0108_
*128 _0109_
*129 _0110_
*130 _0111_
*131 _0112_
*132 _0113_
*133 _0114_
*134 _0115_
*135 _0116_
*136 _0117_
*137 _0118_
*138 _0119_
*139 _0120_
*140 _0121_
*141 _0122_
*142 _0123_
*143 _0124_
*144 _0125_
*145 _0126_
*146 _0127_
*147 _0128_
*148 _0129_
*149 _0130_
*150 _0131_
*151 _0132_
*152 _0133_
*153 _0134_
*154 _0135_
*155 _0136_
*156 _0137_
*157 _0138_
*158 _0139_
*159 _0140_
*160 _0141_
*161 _0142_
*162 _0143_
*163 _0144_
*164 _0145_
*165 _0146_
*166 _0147_
*167 _0148_
*168 _0149_
*169 _0150_
*170 _0151_
*171 _0152_
*172 _0153_
*173 _0154_
*174 _0155_
*175 _0156_
*176 _0157_
*177 _0158_
*178 _0159_
*179 _0160_
*180 _0161_
*181 _0162_
*182 _0163_
*183 _0164_
*184 _0165_
*185 _0166_
*186 _0167_
*187 _0168_
*188 _0169_
*189 _0170_
*190 _0171_
*191 _0172_
*192 _0173_
*193 _0174_
*194 _0175_
*195 _0176_
*196 _0177_
*197 _0178_
*198 _0179_
*199 _0180_
*200 _0181_
*201 _0182_
*202 _0183_
*203 _0184_
*204 _0185_
*205 _0186_
*206 _0187_
*207 _0188_
*208 _0189_
*209 _0190_
*210 _0191_
*211 _0192_
*212 _0193_
*213 _0194_
*214 _0195_
*215 _0196_
*216 _0197_
*217 _0198_
*218 _0199_
*219 _0200_
*220 _0201_
*221 _0202_
*222 _0203_
*223 _0204_
*224 _0205_
*225 _0206_
*226 _0207_
*227 _0208_
*228 _0209_
*229 _0210_
*230 _0211_
*231 _0212_
*232 _0213_
*233 _0214_
*234 _0215_
*235 _0216_
*236 _0217_
*237 _0218_
*238 _0219_
*239 _0220_
*240 _0221_
*241 _0222_
*242 _0223_
*243 _0224_
*244 _0225_
*245 _0226_
*246 _0227_
*247 _0228_
*248 _0229_
*249 _0230_
*250 _0231_
*251 _0232_
*252 _0233_
*253 _0234_
*254 _0235_
*255 _0236_
*256 _0237_
*257 _0238_
*258 _0239_
*259 _0240_
*260 _0241_
*261 _0242_
*262 _0243_
*263 _0244_
*264 _0245_
*265 _0246_
*266 _0247_
*267 _0248_
*268 _0249_
*269 _0250_
*270 _0251_
*271 _0252_
*272 _0253_
*273 _0254_
*274 _0255_
*275 _0256_
*276 _0257_
*277 _0258_
*278 _0259_
*279 _0260_
*280 _0261_
*281 _0262_
*282 _0263_
*283 _0264_
*284 _0265_
*285 _0266_
*286 _0267_
*287 _0268_
*288 _0269_
*289 _0270_
*290 _0271_
*291 _0272_
*292 _0273_
*293 _0274_
*294 _0275_
*295 _0276_
*296 _0277_
*297 _0278_
*298 _0279_
*299 _0280_
*300 _0281_
*301 _0282_
*302 _0283_
*303 _0284_
*304 _0285_
*305 _0286_
*306 _0287_
*307 _0288_
*308 _0289_
*309 _0290_
*310 _0291_
*311 _0292_
*312 _0293_
*313 _0294_
*314 _0295_
*315 _0296_
*316 _0297_
*317 _0298_
*318 _0299_
*319 _0300_
*320 _0301_
*321 _0302_
*322 _0303_
*323 _0304_
*324 _0305_
*325 _0306_
*326 _0307_
*327 _0308_
*328 _0309_
*329 _0310_
*330 _0311_
*331 _0312_
*332 _0313_
*333 _0314_
*334 _0315_
*335 _0316_
*336 _0317_
*337 _0318_
*338 _0319_
*339 _0320_
*340 _0321_
*341 _0322_
*342 _0323_
*343 _0324_
*344 _0325_
*345 _0326_
*346 _0327_
*347 _0328_
*348 _0329_
*349 _0330_
*350 _0331_
*351 _0332_
*352 _0333_
*353 _0334_
*354 _0335_
*355 _0336_
*356 _0337_
*357 _0338_
*358 _0339_
*359 _0340_
*360 _0341_
*361 _0342_
*362 _0343_
*363 _0344_
*364 _0345_
*365 _0346_
*366 _0347_
*367 _0348_
*368 _0349_
*369 _0350_
*370 _0351_
*371 _0352_
*372 _0353_
*373 _0354_
*374 _0355_
*375 _0356_
*376 _0357_
*377 _0358_
*378 _0359_
*379 _0360_
*380 _0361_
*381 _0362_
*382 _0363_
*383 _0364_
*384 _0365_
*385 _0366_
*386 _0367_
*387 _0368_
*388 _0369_
*389 _0370_
*390 _0371_
*391 _0372_
*392 _0373_
*393 _0374_
*394 _0375_
*395 _0376_
*396 _0377_
*397 _0378_
*398 _0379_
*399 _0380_
*400 _0381_
*401 _0382_
*402 _0383_
*403 _0384_
*404 _0385_
*405 _0386_
*406 _0387_
*407 _0388_
*408 _0389_
*409 _0390_
*410 _0391_
*411 _0392_
*412 _0393_
*413 _0394_
*414 _0395_
*415 _0396_
*416 _0397_
*417 _0398_
*418 _0399_
*419 _0400_
*420 _0401_
*421 _0402_
*422 _0403_
*423 _0404_
*424 _0405_
*425 _0406_
*426 _0407_
*427 _0408_
*428 _0409_
*429 _0410_
*430 _0411_
*431 _0412_
*432 _0413_
*433 _0414_
*434 _0415_
*435 _0416_
*436 _0417_
*437 _0418_
*438 _0419_
*439 _0420_
*440 _0421_
*441 _0422_
*442 _0423_
*443 _0424_
*444 _0425_
*445 _0426_
*446 _0427_
*447 _0428_
*448 _0429_
*449 _0430_
*450 _0431_
*451 _0432_
*452 _0433_
*453 _0434_
*454 _0435_
*455 _0436_
*456 _0437_
*457 _0438_
*458 _0439_
*459 _0440_
*460 _0441_
*461 _0442_
*462 _0443_
*463 _0444_
*464 _0445_
*465 _0446_
*466 _0447_
*467 _0448_
*468 _0449_
*469 _0450_
*470 _0451_
*471 _0452_
*472 _0453_
*473 _0454_
*474 _0455_
*475 _0456_
*476 _0457_
*477 _0458_
*478 _0459_
*479 _0460_
*480 _0461_
*481 _0462_
*482 _0463_
*483 _0464_
*484 _0465_
*485 _0466_
*486 _0467_
*487 _0468_
*488 _0469_
*489 _0470_
*490 _0471_
*491 _0472_
*492 _0473_
*493 _0474_
*494 _0475_
*495 _0476_
*496 _0477_
*497 _0478_
*498 _0479_
*499 _0480_
*500 _0481_
*501 _0482_
*502 _0483_
*503 _0484_
*504 _0485_
*505 _0486_
*506 _0487_
*507 _0488_
*508 _0489_
*509 _0490_
*510 _0491_
*511 _0492_
*512 _0493_
*513 _0494_
*514 _0495_
*515 _0496_
*516 _0497_
*517 _0498_
*518 _0499_
*519 _0500_
*520 _0501_
*521 _0502_
*522 _0503_
*523 _0504_
*524 _0505_
*525 _0506_
*526 _0507_
*527 _0508_
*528 _0509_
*529 _0510_
*530 _0511_
*531 _0512_
*532 _0513_
*533 _0514_
*534 _0515_
*535 _0516_
*536 _0517_
*537 _0518_
*538 _0519_
*539 _0520_
*540 _0521_
*541 _0522_
*542 _0523_
*543 _0524_
*544 _0525_
*545 _0526_
*546 _0527_
*547 _0528_
*548 _0529_
*549 _0530_
*550 _0531_
*551 _0532_
*552 _0533_
*553 _0534_
*554 _0535_
*555 _0536_
*556 _0537_
*557 _0538_
*558 _0539_
*559 _0540_
*560 _0541_
*561 _0542_
*562 _0543_
*563 _0544_
*564 _0545_
*565 _0546_
*566 _0547_
*567 _0548_
*568 _0549_
*569 _0550_
*570 _0551_
*571 _0552_
*572 _0553_
*573 _0554_
*574 _0555_
*575 _0556_
*576 _0557_
*577 _0558_
*578 _0559_
*579 _0560_
*580 _0561_
*581 _0562_
*582 _0563_
*583 _0564_
*584 _0565_
*585 _0566_
*586 _0567_
*587 _0568_
*588 _0569_
*589 _0570_
*590 _0571_
*591 _0572_
*592 _0573_
*593 _0574_
*594 _0575_
*595 _0576_
*596 _0577_
*597 _0578_
*598 _0579_
*599 _0580_
*600 _0581_
*601 _0582_
*602 _0583_
*603 _0584_
*604 _0585_
*605 _0586_
*606 _0587_
*607 _0588_
*608 _0589_
*609 _0590_
*610 _0591_
*611 _0592_
*612 _0593_
*613 _0594_
*614 _0595_
*615 _0596_
*616 _0597_
*617 _0598_
*618 _0599_
*619 _0600_
*620 _0601_
*621 _0602_
*622 _0603_
*623 _0604_
*624 _0605_
*625 _0606_
*626 _0607_
*627 _0608_
*628 _0609_
*629 _0610_
*630 _0611_
*631 _0612_
*632 _0613_
*633 _0614_
*634 _0615_
*635 _0616_
*636 _0617_
*637 _0618_
*638 _0619_
*639 _0620_
*640 _0621_
*641 _0622_
*642 _0623_
*643 _0624_
*644 _0625_
*645 _0626_
*646 _0627_
*647 _0628_
*648 _0629_
*649 _0630_
*650 _0631_
*651 _0632_
*652 _0633_
*653 _0634_
*654 _0635_
*655 _0636_
*656 _0637_
*657 _0638_
*658 _0639_
*659 _0640_
*660 _0641_
*661 _0642_
*662 _0643_
*663 _0644_
*664 _0645_
*665 _0646_
*666 _0647_
*667 _0648_
*668 _0649_
*669 _0650_
*670 _0651_
*671 _0652_
*672 _0653_
*673 _0654_
*674 _0655_
*675 _0656_
*676 _0657_
*677 _0658_
*678 _0659_
*679 _0660_
*680 _0661_
*681 _0662_
*682 _0663_
*683 _0664_
*684 _0665_
*685 _0666_
*686 _0667_
*687 _0668_
*688 _0669_
*689 _0670_
*690 _0671_
*691 _0672_
*692 _0673_
*693 _0674_
*694 _0675_
*695 _0676_
*696 _0677_
*697 _0678_
*698 _0679_
*699 _0680_
*700 _0681_
*701 _0682_
*702 _0683_
*703 _0684_
*704 _0685_
*705 _0686_
*706 _0687_
*707 _0688_
*708 _0689_
*709 _0690_
*710 _0691_
*711 _0692_
*712 _0693_
*713 _0694_
*714 _0695_
*715 _0696_
*716 _0697_
*717 _0698_
*718 _0699_
*719 _0700_
*720 _0701_
*721 _0702_
*722 _0703_
*723 _0704_
*724 _0705_
*725 _0706_
*726 _0707_
*727 _0708_
*728 _0709_
*729 _0710_
*730 _0711_
*731 _0712_
*732 _0713_
*733 _0714_
*734 _0715_
*735 _0716_
*736 _0717_
*737 _0718_
*738 _0719_
*739 _0720_
*740 _0721_
*741 _0722_
*742 _0723_
*743 _0724_
*744 _0725_
*745 _0726_
*746 _0727_
*747 _0728_
*748 _0729_
*749 _0730_
*750 _0731_
*751 _0732_
*752 _0733_
*753 _0734_
*754 _0735_
*755 _0736_
*756 _0737_
*757 _0738_
*758 _0739_
*759 _0740_
*760 _0741_
*761 _0742_
*762 _0743_
*763 _0744_
*764 _0745_
*765 _0746_
*766 _0747_
*767 _0748_
*768 _0749_
*769 _0750_
*770 _0751_
*771 _0752_
*772 _0753_
*773 _0754_
*774 _0755_
*775 _0756_
*776 _0757_
*777 _0758_
*778 _0759_
*779 _0760_
*780 _0761_
*781 _0762_
*782 _0763_
*783 _0764_
*784 _0765_
*785 _0766_
*786 _0767_
*787 _0768_
*788 _0769_
*789 _0770_
*790 _0771_
*791 _0772_
*792 _0773_
*793 _0774_
*794 _0775_
*795 _0776_
*796 _0777_
*797 _0778_
*798 _0779_
*799 _0780_
*800 _0781_
*801 _0782_
*802 _0783_
*803 _0784_
*804 _0785_
*805 _0786_
*806 _0787_
*807 _0788_
*808 _0789_
*809 _0790_
*810 _0791_
*811 _0792_
*812 _0793_
*813 _0794_
*814 _0795_
*815 _0796_
*816 _0797_
*817 _0798_
*818 _0799_
*819 _0800_
*820 _0801_
*821 _0802_
*822 _0803_
*823 _0804_
*824 _0805_
*825 _0806_
*826 _0807_
*827 _0808_
*828 _0809_
*829 _0810_
*830 _0811_
*831 _0812_
*832 _0813_
*833 _0814_
*834 _0815_
*835 _0816_
*836 _0817_
*837 _0818_
*838 _0819_
*839 _0820_
*840 _0821_
*841 _0822_
*842 _0823_
*843 _0824_
*844 _0825_
*845 _0826_
*846 _0827_
*847 _0828_
*848 _0829_
*849 _0830_
*850 _0831_
*851 _0832_
*852 _0833_
*853 _0834_
*854 _0835_
*855 _0836_
*856 _0837_
*857 _0838_
*858 _0839_
*859 _0840_
*860 _0841_
*861 _0842_
*862 _0843_
*863 _0844_
*864 _0845_
*865 _0846_
*866 _0847_
*867 _0848_
*868 _0849_
*869 _0850_
*870 _0851_
*871 _0852_
*872 _0853_
*873 _0854_
*874 _0855_
*875 _0856_
*876 _0857_
*877 _0858_
*878 _0859_
*879 _0860_
*880 _0861_
*881 _0862_
*882 _0863_
*883 _0864_
*884 _0865_
*885 _0866_
*886 _0867_
*887 _0868_
*888 _0869_
*889 _0870_
*890 _0871_
*891 _0872_
*892 _0873_
*893 _0874_
*894 _0875_
*895 _0876_
*896 _0877_
*897 _0878_
*898 _0879_
*899 _0880_
*900 _0881_
*901 _0882_
*902 _0883_
*903 _0884_
*904 _0885_
*905 _0886_
*906 _0887_
*907 _0888_
*908 _0889_
*909 _0890_
*910 _0891_
*911 _0892_
*912 _0893_
*913 _0894_
*914 _0895_
*915 _0896_
*916 _0897_
*917 _0898_
*918 _0899_
*919 _0900_
*920 _0901_
*921 _0902_
*922 _0903_
*923 _0904_
*924 _0905_
*925 _0906_
*926 _0907_
*927 _0908_
*928 _0909_
*929 _0910_
*930 _0911_
*931 _0912_
*932 _0913_
*933 _0914_
*934 _0915_
*935 _0916_
*936 _0917_
*937 _0918_
*938 _0919_
*939 _0920_
*940 _0921_
*941 _0922_
*942 _0923_
*943 _0924_
*944 _0925_
*945 _0926_
*946 _0927_
*947 _0928_
*948 _0929_
*949 _0930_
*950 _0931_
*951 _0932_
*952 _0933_
*953 _0934_
*954 _0935_
*955 _0936_
*956 _0937_
*957 _0938_
*958 _0939_
*959 _0940_
*960 _0941_
*961 clknet_0_io_in[0]
*962 clknet_1_0__leaf_io_in[0]
*963 clknet_1_1__leaf_io_in[0]
*964 dot_done
*965 i_dpd\.in_000
*966 i_dpd\.in_001
*967 i_dpd\.in_002
*968 i_dpd\.in_003
*969 i_dpd\.in_004
*970 i_dpd\.in_005
*971 i_dpd\.in_006
*972 i_dpd\.in_007
*973 i_dpd\.in_008
*974 i_dpd\.in_009
*975 index\[0\]
*976 index\[10\]
*977 index\[11\]
*978 index\[1\]
*979 index\[2\]
*980 index\[3\]
*981 index\[4\]
*982 index\[5\]
*983 index\[6\]
*984 index\[7\]
*985 index\[8\]
*986 index\[9\]
*987 net1
*988 ANTENNA_1
*989 ANTENNA_10
*990 ANTENNA_11
*991 ANTENNA_12
*992 ANTENNA_13
*993 ANTENNA_14
*994 ANTENNA_15
*995 ANTENNA_16
*996 ANTENNA_17
*997 ANTENNA_18
*998 ANTENNA_19
*999 ANTENNA_2
*1000 ANTENNA_20
*1001 ANTENNA_21
*1002 ANTENNA_22
*1003 ANTENNA_23
*1004 ANTENNA_24
*1005 ANTENNA_25
*1006 ANTENNA_26
*1007 ANTENNA_3
*1008 ANTENNA_4
*1009 ANTENNA_5
*1010 ANTENNA_6
*1011 ANTENNA_7
*1012 ANTENNA_8
*1013 ANTENNA_9
*1014 FILLER_0_103
*1015 FILLER_0_111
*1016 FILLER_0_113
*1017 FILLER_0_124
*1018 FILLER_0_136
*1019 FILLER_0_141
*1020 FILLER_0_147
*1021 FILLER_0_154
*1022 FILLER_0_166
*1023 FILLER_0_169
*1024 FILLER_0_174
*1025 FILLER_0_178
*1026 FILLER_0_182
*1027 FILLER_0_194
*1028 FILLER_0_197
*1029 FILLER_0_209
*1030 FILLER_0_22
*1031 FILLER_0_221
*1032 FILLER_0_225
*1033 FILLER_0_237
*1034 FILLER_0_249
*1035 FILLER_0_253
*1036 FILLER_0_265
*1037 FILLER_0_277
*1038 FILLER_0_281
*1039 FILLER_0_29
*1040 FILLER_0_293
*1041 FILLER_0_3
*1042 FILLER_0_47
*1043 FILLER_0_55
*1044 FILLER_0_57
*1045 FILLER_0_79
*1046 FILLER_0_83
*1047 FILLER_0_85
*1048 FILLER_10_100
*1049 FILLER_10_107
*1050 FILLER_10_119
*1051 FILLER_10_127
*1052 FILLER_10_135
*1053 FILLER_10_139
*1054 FILLER_10_141
*1055 FILLER_10_150
*1056 FILLER_10_159
*1057 FILLER_10_167
*1058 FILLER_10_174
*1059 FILLER_10_185
*1060 FILLER_10_193
*1061 FILLER_10_197
*1062 FILLER_10_204
*1063 FILLER_10_21
*1064 FILLER_10_210
*1065 FILLER_10_219
*1066 FILLER_10_229
*1067 FILLER_10_239
*1068 FILLER_10_249
*1069 FILLER_10_253
*1070 FILLER_10_261
*1071 FILLER_10_27
*1072 FILLER_10_271
*1073 FILLER_10_280
*1074 FILLER_10_29
*1075 FILLER_10_292
*1076 FILLER_10_298
*1077 FILLER_10_3
*1078 FILLER_10_35
*1079 FILLER_10_42
*1080 FILLER_10_55
*1081 FILLER_10_68
*1082 FILLER_10_81
*1083 FILLER_10_85
*1084 FILLER_11_103
*1085 FILLER_11_110
*1086 FILLER_11_113
*1087 FILLER_11_122
*1088 FILLER_11_128
*1089 FILLER_11_133
*1090 FILLER_11_144
*1091 FILLER_11_15
*1092 FILLER_11_153
*1093 FILLER_11_165
*1094 FILLER_11_169
*1095 FILLER_11_187
*1096 FILLER_11_195
*1097 FILLER_11_204
*1098 FILLER_11_216
*1099 FILLER_11_225
*1100 FILLER_11_234
*1101 FILLER_11_242
*1102 FILLER_11_250
*1103 FILLER_11_261
*1104 FILLER_11_27
*1105 FILLER_11_270
*1106 FILLER_11_278
*1107 FILLER_11_281
*1108 FILLER_11_289
*1109 FILLER_11_297
*1110 FILLER_11_3
*1111 FILLER_11_35
*1112 FILLER_11_44
*1113 FILLER_11_54
*1114 FILLER_11_57
*1115 FILLER_11_63
*1116 FILLER_11_70
*1117 FILLER_11_82
*1118 FILLER_11_93
*1119 FILLER_12_11
*1120 FILLER_12_111
*1121 FILLER_12_115
*1122 FILLER_12_124
*1123 FILLER_12_136
*1124 FILLER_12_141
*1125 FILLER_12_153
*1126 FILLER_12_165
*1127 FILLER_12_173
*1128 FILLER_12_18
*1129 FILLER_12_185
*1130 FILLER_12_193
*1131 FILLER_12_197
*1132 FILLER_12_209
*1133 FILLER_12_214
*1134 FILLER_12_226
*1135 FILLER_12_237
*1136 FILLER_12_243
*1137 FILLER_12_249
*1138 FILLER_12_253
*1139 FILLER_12_26
*1140 FILLER_12_263
*1141 FILLER_12_273
*1142 FILLER_12_29
*1143 FILLER_12_293
*1144 FILLER_12_3
*1145 FILLER_12_33
*1146 FILLER_12_39
*1147 FILLER_12_49
*1148 FILLER_12_59
*1149 FILLER_12_7
*1150 FILLER_12_74
*1151 FILLER_12_82
*1152 FILLER_12_85
*1153 FILLER_12_93
*1154 FILLER_13_101
*1155 FILLER_13_109
*1156 FILLER_13_113
*1157 FILLER_13_130
*1158 FILLER_13_134
*1159 FILLER_13_138
*1160 FILLER_13_15
*1161 FILLER_13_150
*1162 FILLER_13_166
*1163 FILLER_13_169
*1164 FILLER_13_176
*1165 FILLER_13_188
*1166 FILLER_13_196
*1167 FILLER_13_201
*1168 FILLER_13_209
*1169 FILLER_13_214
*1170 FILLER_13_22
*1171 FILLER_13_222
*1172 FILLER_13_225
*1173 FILLER_13_236
*1174 FILLER_13_243
*1175 FILLER_13_253
*1176 FILLER_13_267
*1177 FILLER_13_277
*1178 FILLER_13_281
*1179 FILLER_13_293
*1180 FILLER_13_3
*1181 FILLER_13_30
*1182 FILLER_13_43
*1183 FILLER_13_54
*1184 FILLER_13_57
*1185 FILLER_13_68
*1186 FILLER_13_76
*1187 FILLER_13_91
*1188 FILLER_14_101
*1189 FILLER_14_115
*1190 FILLER_14_125
*1191 FILLER_14_129
*1192 FILLER_14_138
*1193 FILLER_14_141
*1194 FILLER_14_155
*1195 FILLER_14_16
*1196 FILLER_14_163
*1197 FILLER_14_171
*1198 FILLER_14_179
*1199 FILLER_14_191
*1200 FILLER_14_195
*1201 FILLER_14_197
*1202 FILLER_14_207
*1203 FILLER_14_217
*1204 FILLER_14_229
*1205 FILLER_14_236
*1206 FILLER_14_246
*1207 FILLER_14_253
*1208 FILLER_14_26
*1209 FILLER_14_265
*1210 FILLER_14_277
*1211 FILLER_14_289
*1212 FILLER_14_29
*1213 FILLER_14_294
*1214 FILLER_14_298
*1215 FILLER_14_3
*1216 FILLER_14_37
*1217 FILLER_14_47
*1218 FILLER_14_57
*1219 FILLER_14_68
*1220 FILLER_14_72
*1221 FILLER_14_82
*1222 FILLER_14_85
*1223 FILLER_14_9
*1224 FILLER_14_93
*1225 FILLER_15_104
*1226 FILLER_15_11
*1227 FILLER_15_113
*1228 FILLER_15_123
*1229 FILLER_15_135
*1230 FILLER_15_144
*1231 FILLER_15_156
*1232 FILLER_15_169
*1233 FILLER_15_17
*1234 FILLER_15_177
*1235 FILLER_15_184
*1236 FILLER_15_193
*1237 FILLER_15_197
*1238 FILLER_15_203
*1239 FILLER_15_215
*1240 FILLER_15_222
*1241 FILLER_15_225
*1242 FILLER_15_233
*1243 FILLER_15_243
*1244 FILLER_15_256
*1245 FILLER_15_266
*1246 FILLER_15_278
*1247 FILLER_15_28
*1248 FILLER_15_281
*1249 FILLER_15_289
*1250 FILLER_15_297
*1251 FILLER_15_3
*1252 FILLER_15_49
*1253 FILLER_15_55
*1254 FILLER_15_57
*1255 FILLER_15_66
*1256 FILLER_15_7
*1257 FILLER_15_79
*1258 FILLER_15_87
*1259 FILLER_15_92
*1260 FILLER_16_104
*1261 FILLER_16_112
*1262 FILLER_16_119
*1263 FILLER_16_12
*1264 FILLER_16_132
*1265 FILLER_16_141
*1266 FILLER_16_153
*1267 FILLER_16_165
*1268 FILLER_16_173
*1269 FILLER_16_181
*1270 FILLER_16_193
*1271 FILLER_16_197
*1272 FILLER_16_209
*1273 FILLER_16_217
*1274 FILLER_16_22
*1275 FILLER_16_222
*1276 FILLER_16_232
*1277 FILLER_16_244
*1278 FILLER_16_253
*1279 FILLER_16_263
*1280 FILLER_16_275
*1281 FILLER_16_283
*1282 FILLER_16_29
*1283 FILLER_16_294
*1284 FILLER_16_298
*1285 FILLER_16_3
*1286 FILLER_16_40
*1287 FILLER_16_44
*1288 FILLER_16_62
*1289 FILLER_16_75
*1290 FILLER_16_83
*1291 FILLER_16_85
*1292 FILLER_16_96
*1293 FILLER_17_105
*1294 FILLER_17_111
*1295 FILLER_17_113
*1296 FILLER_17_123
*1297 FILLER_17_138
*1298 FILLER_17_142
*1299 FILLER_17_151
*1300 FILLER_17_157
*1301 FILLER_17_165
*1302 FILLER_17_169
*1303 FILLER_17_176
*1304 FILLER_17_18
*1305 FILLER_17_188
*1306 FILLER_17_197
*1307 FILLER_17_209
*1308 FILLER_17_213
*1309 FILLER_17_219
*1310 FILLER_17_223
*1311 FILLER_17_225
*1312 FILLER_17_233
*1313 FILLER_17_241
*1314 FILLER_17_253
*1315 FILLER_17_261
*1316 FILLER_17_268
*1317 FILLER_17_278
*1318 FILLER_17_28
*1319 FILLER_17_281
*1320 FILLER_17_294
*1321 FILLER_17_298
*1322 FILLER_17_3
*1323 FILLER_17_36
*1324 FILLER_17_44
*1325 FILLER_17_54
*1326 FILLER_17_57
*1327 FILLER_17_72
*1328 FILLER_17_84
*1329 FILLER_17_94
*1330 FILLER_18_106
*1331 FILLER_18_122
*1332 FILLER_18_130
*1333 FILLER_18_137
*1334 FILLER_18_141
*1335 FILLER_18_153
*1336 FILLER_18_165
*1337 FILLER_18_173
*1338 FILLER_18_184
*1339 FILLER_18_194
*1340 FILLER_18_197
*1341 FILLER_18_205
*1342 FILLER_18_21
*1343 FILLER_18_215
*1344 FILLER_18_228
*1345 FILLER_18_240
*1346 FILLER_18_250
*1347 FILLER_18_253
*1348 FILLER_18_27
*1349 FILLER_18_272
*1350 FILLER_18_284
*1351 FILLER_18_29
*1352 FILLER_18_294
*1353 FILLER_18_298
*1354 FILLER_18_3
*1355 FILLER_18_44
*1356 FILLER_18_53
*1357 FILLER_18_63
*1358 FILLER_18_73
*1359 FILLER_18_82
*1360 FILLER_18_85
*1361 FILLER_18_93
*1362 FILLER_19_103
*1363 FILLER_19_111
*1364 FILLER_19_113
*1365 FILLER_19_120
*1366 FILLER_19_128
*1367 FILLER_19_137
*1368 FILLER_19_148
*1369 FILLER_19_152
*1370 FILLER_19_161
*1371 FILLER_19_167
*1372 FILLER_19_169
*1373 FILLER_19_181
*1374 FILLER_19_187
*1375 FILLER_19_193
*1376 FILLER_19_206
*1377 FILLER_19_218
*1378 FILLER_19_225
*1379 FILLER_19_232
*1380 FILLER_19_239
*1381 FILLER_19_255
*1382 FILLER_19_266
*1383 FILLER_19_27
*1384 FILLER_19_277
*1385 FILLER_19_281
*1386 FILLER_19_290
*1387 FILLER_19_298
*1388 FILLER_19_3
*1389 FILLER_19_39
*1390 FILLER_19_47
*1391 FILLER_19_54
*1392 FILLER_19_57
*1393 FILLER_19_61
*1394 FILLER_19_76
*1395 FILLER_19_84
*1396 FILLER_19_91
*1397 FILLER_1_108
*1398 FILLER_1_113
*1399 FILLER_1_124
*1400 FILLER_1_135
*1401 FILLER_1_153
*1402 FILLER_1_164
*1403 FILLER_1_169
*1404 FILLER_1_179
*1405 FILLER_1_185
*1406 FILLER_1_192
*1407 FILLER_1_196
*1408 FILLER_1_204
*1409 FILLER_1_214
*1410 FILLER_1_222
*1411 FILLER_1_225
*1412 FILLER_1_237
*1413 FILLER_1_24
*1414 FILLER_1_242
*1415 FILLER_1_254
*1416 FILLER_1_266
*1417 FILLER_1_278
*1418 FILLER_1_281
*1419 FILLER_1_293
*1420 FILLER_1_3
*1421 FILLER_1_44
*1422 FILLER_1_73
*1423 FILLER_1_77
*1424 FILLER_1_95
*1425 FILLER_20_102
*1426 FILLER_20_107
*1427 FILLER_20_122
*1428 FILLER_20_134
*1429 FILLER_20_138
*1430 FILLER_20_141
*1431 FILLER_20_145
*1432 FILLER_20_15
*1433 FILLER_20_151
*1434 FILLER_20_163
*1435 FILLER_20_183
*1436 FILLER_20_195
*1437 FILLER_20_197
*1438 FILLER_20_207
*1439 FILLER_20_213
*1440 FILLER_20_222
*1441 FILLER_20_233
*1442 FILLER_20_239
*1443 FILLER_20_249
*1444 FILLER_20_253
*1445 FILLER_20_26
*1446 FILLER_20_260
*1447 FILLER_20_268
*1448 FILLER_20_278
*1449 FILLER_20_29
*1450 FILLER_20_296
*1451 FILLER_20_3
*1452 FILLER_20_33
*1453 FILLER_20_41
*1454 FILLER_20_54
*1455 FILLER_20_65
*1456 FILLER_20_75
*1457 FILLER_20_83
*1458 FILLER_20_85
*1459 FILLER_20_94
*1460 FILLER_21_109
*1461 FILLER_21_113
*1462 FILLER_21_119
*1463 FILLER_21_126
*1464 FILLER_21_134
*1465 FILLER_21_138
*1466 FILLER_21_145
*1467 FILLER_21_15
*1468 FILLER_21_157
*1469 FILLER_21_166
*1470 FILLER_21_169
*1471 FILLER_21_178
*1472 FILLER_21_186
*1473 FILLER_21_196
*1474 FILLER_21_208
*1475 FILLER_21_217
*1476 FILLER_21_223
*1477 FILLER_21_225
*1478 FILLER_21_229
*1479 FILLER_21_232
*1480 FILLER_21_243
*1481 FILLER_21_258
*1482 FILLER_21_262
*1483 FILLER_21_270
*1484 FILLER_21_278
*1485 FILLER_21_281
*1486 FILLER_21_287
*1487 FILLER_21_294
*1488 FILLER_21_298
*1489 FILLER_21_3
*1490 FILLER_21_30
*1491 FILLER_21_41
*1492 FILLER_21_51
*1493 FILLER_21_55
*1494 FILLER_21_57
*1495 FILLER_21_63
*1496 FILLER_21_76
*1497 FILLER_21_83
*1498 FILLER_21_87
*1499 FILLER_21_96
*1500 FILLER_22_107
*1501 FILLER_22_116
*1502 FILLER_22_124
*1503 FILLER_22_133
*1504 FILLER_22_139
*1505 FILLER_22_141
*1506 FILLER_22_149
*1507 FILLER_22_167
*1508 FILLER_22_17
*1509 FILLER_22_179
*1510 FILLER_22_191
*1511 FILLER_22_195
*1512 FILLER_22_197
*1513 FILLER_22_211
*1514 FILLER_22_222
*1515 FILLER_22_228
*1516 FILLER_22_235
*1517 FILLER_22_250
*1518 FILLER_22_253
*1519 FILLER_22_26
*1520 FILLER_22_260
*1521 FILLER_22_269
*1522 FILLER_22_277
*1523 FILLER_22_283
*1524 FILLER_22_29
*1525 FILLER_22_293
*1526 FILLER_22_3
*1527 FILLER_22_59
*1528 FILLER_22_7
*1529 FILLER_22_71
*1530 FILLER_22_79
*1531 FILLER_22_83
*1532 FILLER_22_85
*1533 FILLER_22_96
*1534 FILLER_23_107
*1535 FILLER_23_111
*1536 FILLER_23_113
*1537 FILLER_23_117
*1538 FILLER_23_127
*1539 FILLER_23_13
*1540 FILLER_23_135
*1541 FILLER_23_145
*1542 FILLER_23_155
*1543 FILLER_23_167
*1544 FILLER_23_169
*1545 FILLER_23_175
*1546 FILLER_23_180
*1547 FILLER_23_194
*1548 FILLER_23_205
*1549 FILLER_23_215
*1550 FILLER_23_223
*1551 FILLER_23_225
*1552 FILLER_23_235
*1553 FILLER_23_24
*1554 FILLER_23_241
*1555 FILLER_23_248
*1556 FILLER_23_257
*1557 FILLER_23_265
*1558 FILLER_23_273
*1559 FILLER_23_279
*1560 FILLER_23_281
*1561 FILLER_23_293
*1562 FILLER_23_3
*1563 FILLER_23_34
*1564 FILLER_23_43
*1565 FILLER_23_52
*1566 FILLER_23_57
*1567 FILLER_23_65
*1568 FILLER_23_77
*1569 FILLER_23_90
*1570 FILLER_23_94
*1571 FILLER_23_98
*1572 FILLER_24_10
*1573 FILLER_24_106
*1574 FILLER_24_119
*1575 FILLER_24_131
*1576 FILLER_24_139
*1577 FILLER_24_141
*1578 FILLER_24_153
*1579 FILLER_24_163
*1580 FILLER_24_167
*1581 FILLER_24_174
*1582 FILLER_24_182
*1583 FILLER_24_192
*1584 FILLER_24_197
*1585 FILLER_24_209
*1586 FILLER_24_22
*1587 FILLER_24_225
*1588 FILLER_24_229
*1589 FILLER_24_238
*1590 FILLER_24_248
*1591 FILLER_24_253
*1592 FILLER_24_264
*1593 FILLER_24_273
*1594 FILLER_24_281
*1595 FILLER_24_29
*1596 FILLER_24_290
*1597 FILLER_24_297
*1598 FILLER_24_3
*1599 FILLER_24_36
*1600 FILLER_24_40
*1601 FILLER_24_53
*1602 FILLER_24_62
*1603 FILLER_24_70
*1604 FILLER_24_79
*1605 FILLER_24_83
*1606 FILLER_24_85
*1607 FILLER_24_94
*1608 FILLER_25_107
*1609 FILLER_25_111
*1610 FILLER_25_113
*1611 FILLER_25_134
*1612 FILLER_25_145
*1613 FILLER_25_157
*1614 FILLER_25_165
*1615 FILLER_25_169
*1616 FILLER_25_17
*1617 FILLER_25_177
*1618 FILLER_25_185
*1619 FILLER_25_196
*1620 FILLER_25_208
*1621 FILLER_25_212
*1622 FILLER_25_225
*1623 FILLER_25_233
*1624 FILLER_25_244
*1625 FILLER_25_252
*1626 FILLER_25_260
*1627 FILLER_25_264
*1628 FILLER_25_27
*1629 FILLER_25_272
*1630 FILLER_25_281
*1631 FILLER_25_287
*1632 FILLER_25_294
*1633 FILLER_25_298
*1634 FILLER_25_3
*1635 FILLER_25_36
*1636 FILLER_25_40
*1637 FILLER_25_48
*1638 FILLER_25_57
*1639 FILLER_25_64
*1640 FILLER_25_76
*1641 FILLER_25_88
*1642 FILLER_25_95
*1643 FILLER_26_104
*1644 FILLER_26_11
*1645 FILLER_26_110
*1646 FILLER_26_121
*1647 FILLER_26_125
*1648 FILLER_26_131
*1649 FILLER_26_139
*1650 FILLER_26_141
*1651 FILLER_26_145
*1652 FILLER_26_153
*1653 FILLER_26_161
*1654 FILLER_26_168
*1655 FILLER_26_180
*1656 FILLER_26_192
*1657 FILLER_26_197
*1658 FILLER_26_207
*1659 FILLER_26_21
*1660 FILLER_26_213
*1661 FILLER_26_222
*1662 FILLER_26_232
*1663 FILLER_26_246
*1664 FILLER_26_253
*1665 FILLER_26_263
*1666 FILLER_26_269
*1667 FILLER_26_27
*1668 FILLER_26_274
*1669 FILLER_26_282
*1670 FILLER_26_289
*1671 FILLER_26_29
*1672 FILLER_26_297
*1673 FILLER_26_3
*1674 FILLER_26_34
*1675 FILLER_26_46
*1676 FILLER_26_54
*1677 FILLER_26_63
*1678 FILLER_26_70
*1679 FILLER_26_76
*1680 FILLER_26_82
*1681 FILLER_26_85
*1682 FILLER_26_89
*1683 FILLER_26_96
*1684 FILLER_27_100
*1685 FILLER_27_108
*1686 FILLER_27_113
*1687 FILLER_27_122
*1688 FILLER_27_130
*1689 FILLER_27_138
*1690 FILLER_27_14
*1691 FILLER_27_148
*1692 FILLER_27_160
*1693 FILLER_27_169
*1694 FILLER_27_174
*1695 FILLER_27_186
*1696 FILLER_27_193
*1697 FILLER_27_199
*1698 FILLER_27_206
*1699 FILLER_27_214
*1700 FILLER_27_22
*1701 FILLER_27_222
*1702 FILLER_27_225
*1703 FILLER_27_239
*1704 FILLER_27_249
*1705 FILLER_27_261
*1706 FILLER_27_265
*1707 FILLER_27_272
*1708 FILLER_27_281
*1709 FILLER_27_291
*1710 FILLER_27_3
*1711 FILLER_27_36
*1712 FILLER_27_51
*1713 FILLER_27_55
*1714 FILLER_27_57
*1715 FILLER_27_66
*1716 FILLER_27_78
*1717 FILLER_27_88
*1718 FILLER_28_100
*1719 FILLER_28_106
*1720 FILLER_28_116
*1721 FILLER_28_128
*1722 FILLER_28_138
*1723 FILLER_28_141
*1724 FILLER_28_150
*1725 FILLER_28_159
*1726 FILLER_28_16
*1727 FILLER_28_171
*1728 FILLER_28_183
*1729 FILLER_28_195
*1730 FILLER_28_197
*1731 FILLER_28_207
*1732 FILLER_28_219
*1733 FILLER_28_231
*1734 FILLER_28_243
*1735 FILLER_28_251
*1736 FILLER_28_253
*1737 FILLER_28_26
*1738 FILLER_28_263
*1739 FILLER_28_274
*1740 FILLER_28_284
*1741 FILLER_28_29
*1742 FILLER_28_294
*1743 FILLER_28_298
*1744 FILLER_28_3
*1745 FILLER_28_37
*1746 FILLER_28_47
*1747 FILLER_28_58
*1748 FILLER_28_64
*1749 FILLER_28_68
*1750 FILLER_28_79
*1751 FILLER_28_83
*1752 FILLER_28_85
*1753 FILLER_28_9
*1754 FILLER_28_92
*1755 FILLER_29_107
*1756 FILLER_29_111
*1757 FILLER_29_113
*1758 FILLER_29_121
*1759 FILLER_29_125
*1760 FILLER_29_132
*1761 FILLER_29_144
*1762 FILLER_29_153
*1763 FILLER_29_165
*1764 FILLER_29_169
*1765 FILLER_29_17
*1766 FILLER_29_181
*1767 FILLER_29_193
*1768 FILLER_29_201
*1769 FILLER_29_205
*1770 FILLER_29_210
*1771 FILLER_29_222
*1772 FILLER_29_225
*1773 FILLER_29_231
*1774 FILLER_29_243
*1775 FILLER_29_255
*1776 FILLER_29_267
*1777 FILLER_29_27
*1778 FILLER_29_271
*1779 FILLER_29_278
*1780 FILLER_29_281
*1781 FILLER_29_293
*1782 FILLER_29_3
*1783 FILLER_29_39
*1784 FILLER_29_47
*1785 FILLER_29_54
*1786 FILLER_29_57
*1787 FILLER_29_64
*1788 FILLER_29_71
*1789 FILLER_29_83
*1790 FILLER_29_9
*1791 FILLER_29_94
*1792 FILLER_29_98
*1793 FILLER_2_100
*1794 FILLER_2_108
*1795 FILLER_2_114
*1796 FILLER_2_123
*1797 FILLER_2_132
*1798 FILLER_2_141
*1799 FILLER_2_145
*1800 FILLER_2_152
*1801 FILLER_2_159
*1802 FILLER_2_165
*1803 FILLER_2_170
*1804 FILLER_2_182
*1805 FILLER_2_194
*1806 FILLER_2_197
*1807 FILLER_2_201
*1808 FILLER_2_209
*1809 FILLER_2_218
*1810 FILLER_2_230
*1811 FILLER_2_24
*1812 FILLER_2_242
*1813 FILLER_2_250
*1814 FILLER_2_253
*1815 FILLER_2_265
*1816 FILLER_2_277
*1817 FILLER_2_287
*1818 FILLER_2_29
*1819 FILLER_2_3
*1820 FILLER_2_48
*1821 FILLER_2_68
*1822 FILLER_2_75
*1823 FILLER_2_83
*1824 FILLER_2_85
*1825 FILLER_30_101
*1826 FILLER_30_105
*1827 FILLER_30_109
*1828 FILLER_30_116
*1829 FILLER_30_135
*1830 FILLER_30_139
*1831 FILLER_30_141
*1832 FILLER_30_15
*1833 FILLER_30_155
*1834 FILLER_30_163
*1835 FILLER_30_170
*1836 FILLER_30_185
*1837 FILLER_30_193
*1838 FILLER_30_197
*1839 FILLER_30_209
*1840 FILLER_30_215
*1841 FILLER_30_224
*1842 FILLER_30_236
*1843 FILLER_30_242
*1844 FILLER_30_25
*1845 FILLER_30_250
*1846 FILLER_30_253
*1847 FILLER_30_264
*1848 FILLER_30_272
*1849 FILLER_30_283
*1850 FILLER_30_29
*1851 FILLER_30_294
*1852 FILLER_30_298
*1853 FILLER_30_3
*1854 FILLER_30_36
*1855 FILLER_30_42
*1856 FILLER_30_48
*1857 FILLER_30_52
*1858 FILLER_30_58
*1859 FILLER_30_7
*1860 FILLER_30_71
*1861 FILLER_30_75
*1862 FILLER_30_82
*1863 FILLER_30_85
*1864 FILLER_30_95
*1865 FILLER_31_105
*1866 FILLER_31_111
*1867 FILLER_31_113
*1868 FILLER_31_122
*1869 FILLER_31_126
*1870 FILLER_31_130
*1871 FILLER_31_142
*1872 FILLER_31_151
*1873 FILLER_31_163
*1874 FILLER_31_167
*1875 FILLER_31_169
*1876 FILLER_31_178
*1877 FILLER_31_192
*1878 FILLER_31_196
*1879 FILLER_31_204
*1880 FILLER_31_216
*1881 FILLER_31_225
*1882 FILLER_31_229
*1883 FILLER_31_237
*1884 FILLER_31_241
*1885 FILLER_31_247
*1886 FILLER_31_259
*1887 FILLER_31_269
*1888 FILLER_31_27
*1889 FILLER_31_273
*1890 FILLER_31_278
*1891 FILLER_31_281
*1892 FILLER_31_294
*1893 FILLER_31_298
*1894 FILLER_31_3
*1895 FILLER_31_37
*1896 FILLER_31_51
*1897 FILLER_31_55
*1898 FILLER_31_57
*1899 FILLER_31_68
*1900 FILLER_31_82
*1901 FILLER_31_86