*SPEF "ieee 1481-1999"
*DESIGN "meriac_tt02_play_tune"
*DATE "11:11:11 Fri 11 11, 1111"
*VENDOR "OpenRCX"
*PROGRAM "Parallel Extraction"
*VERSION "1.0"
*DESIGN_FLOW "NAME_SCOPE LOCAL" "PIN_CAP NONE"
*DIVIDER /
*DELIMITER :
*BUS_DELIMITER []
*T_UNIT 1 NS
*C_UNIT 1 PF
*R_UNIT 1 OHM
*L_UNIT 1 HENRY

*NAME_MAP
*1 io_in[0]
*2 io_in[1]
*3 io_in[2]
*4 io_in[3]
*5 io_in[4]
*6 io_in[5]
*7 io_in[6]
*8 io_in[7]
*9 io_out[0]
*10 io_out[1]
*11 net2
*12 net3
*13 net4
*14 net5
*15 net6
*16 net7
*19 _007_
*20 _008_
*21 _009_
*22 _010_
*23 _011_
*24 _012_
*25 _013_
*26 _014_
*27 _015_
*28 _016_
*29 _017_
*30 _018_
*31 _019_
*32 _020_
*33 _021_
*34 _022_
*35 _023_
*36 _024_
*37 _025_
*38 _026_
*39 _027_
*40 _028_
*41 _029_
*42 _030_
*43 _031_
*44 _032_
*45 _033_
*46 _034_
*47 _035_
*48 _036_
*49 _037_
*50 _038_
*51 _039_
*52 _040_
*53 _041_
*54 _042_
*55 _043_
*56 _044_
*57 _045_
*58 _046_
*59 _047_
*60 _048_
*61 _049_
*62 _050_
*63 _051_
*64 _052_
*65 _053_
*66 _054_
*67 _055_
*68 _056_
*69 _057_
*70 _058_
*71 _059_
*72 _060_
*73 _061_
*74 _062_
*75 _063_
*76 _064_
*77 _065_
*78 _066_
*79 _067_
*80 _068_
*81 _069_
*82 _070_
*83 _071_
*84 _072_
*85 _073_
*86 _074_
*87 _075_
*88 _076_
*89 _077_
*90 _078_
*91 _079_
*92 _080_
*93 _081_
*94 _082_
*95 _083_
*96 _084_
*97 _085_
*98 _086_
*99 _087_
*100 _088_
*101 _089_
*102 _090_
*103 _091_
*104 _092_
*105 _093_
*106 _094_
*107 _095_
*108 _096_
*109 _097_
*110 _098_
*111 _099_
*112 _100_
*113 _101_
*114 _102_
*115 _103_
*116 _104_
*117 _105_
*118 _106_
*119 _107_
*120 _108_
*121 _109_
*122 _110_
*123 _111_
*124 _112_
*125 _113_
*126 _114_
*127 _115_
*128 _116_
*129 _117_
*130 _118_
*131 _119_
*132 _120_
*133 _121_
*134 _122_
*135 _123_
*136 _124_
*137 _125_
*138 _126_
*139 _127_
*140 _128_
*141 _129_
*142 _130_
*143 _131_
*144 _132_
*145 _133_
*146 _134_
*147 _135_
*148 _136_
*149 _137_
*150 _138_
*151 _139_
*152 _140_
*153 _141_
*154 _142_
*155 _143_
*156 _144_
*157 _145_
*158 _146_
*159 _147_
*160 _148_
*161 _149_
*162 _150_
*163 _151_
*164 _152_
*165 _153_
*166 _154_
*167 _155_
*168 _156_
*169 _157_
*170 _158_
*171 _159_
*172 _160_
*173 _161_
*174 _162_
*175 _163_
*176 _164_
*177 _165_
*178 _166_
*179 _167_
*180 _168_
*181 _169_
*182 _170_
*183 _171_
*184 _172_
*185 _173_
*186 _174_
*187 _175_
*188 _176_
*189 _177_
*190 _178_
*191 _179_
*192 _180_
*193 _181_
*194 _182_
*195 _183_
*196 _184_
*197 _185_
*198 _186_
*199 _187_
*200 _188_
*201 clknet_0_io_in[0]
*202 clknet_1_0__leaf_io_in[0]
*203 clknet_1_1__leaf_io_in[0]
*204 counter\[0\]
*205 counter\[1\]
*206 counter\[2\]
*207 counter\[3\]
*208 counter\[4\]
*209 counter\[5\]
*210 counter\[6\]
*211 meriac_tune_db\.address\[0\]
*212 meriac_tune_db\.address\[1\]
*213 meriac_tune_db\.address\[2\]
*214 meriac_tune_db\.address\[3\]
*215 meriac_tune_db\.address\[4\]
*216 meriac_tune_db\.address\[5\]
*217 meriac_tune_db\.address\[6\]
*218 net1
*219 net10
*220 net11
*221 net12
*222 net13
*223 net14
*224 net8
*225 net9
*226 speaker
*227 FILLER_0_110
*228 FILLER_0_113
*229 FILLER_0_125
*230 FILLER_0_137
*231 FILLER_0_141
*232 FILLER_0_153
*233 FILLER_0_165
*234 FILLER_0_169
*235 FILLER_0_181
*236 FILLER_0_193
*237 FILLER_0_197
*238 FILLER_0_209
*239 FILLER_0_22
*240 FILLER_0_221
*241 FILLER_0_225
*242 FILLER_0_237
*243 FILLER_0_249
*244 FILLER_0_253
*245 FILLER_0_265
*246 FILLER_0_277
*247 FILLER_0_281
*248 FILLER_0_29
*249 FILLER_0_293
*250 FILLER_0_3
*251 FILLER_0_37
*252 FILLER_0_51
*253 FILLER_0_55
*254 FILLER_0_57
*255 FILLER_0_62
*256 FILLER_0_69
*257 FILLER_0_77
*258 FILLER_0_83
*259 FILLER_0_85
*260 FILLER_0_91
*261 FILLER_0_98
*262 FILLER_10_105
*263 FILLER_10_11
*264 FILLER_10_117
*265 FILLER_10_129
*266 FILLER_10_137
*267 FILLER_10_141
*268 FILLER_10_153
*269 FILLER_10_165
*270 FILLER_10_177
*271 FILLER_10_189
*272 FILLER_10_195
*273 FILLER_10_197
*274 FILLER_10_209
*275 FILLER_10_221
*276 FILLER_10_23
*277 FILLER_10_233
*278 FILLER_10_245
*279 FILLER_10_251
*280 FILLER_10_253
*281 FILLER_10_265
*282 FILLER_10_27
*283 FILLER_10_277
*284 FILLER_10_289
*285 FILLER_10_29
*286 FILLER_10_297
*287 FILLER_10_3
*288 FILLER_10_35
*289 FILLER_10_43
*290 FILLER_10_53
*291 FILLER_10_61
*292 FILLER_10_68
*293 FILLER_10_78
*294 FILLER_10_85
*295 FILLER_10_93
*296 FILLER_11_100
*297 FILLER_11_113
*298 FILLER_11_125
*299 FILLER_11_137
*300 FILLER_11_149
*301 FILLER_11_161
*302 FILLER_11_167
*303 FILLER_11_169
*304 FILLER_11_181
*305 FILLER_11_193
*306 FILLER_11_20
*307 FILLER_11_205
*308 FILLER_11_217
*309 FILLER_11_223
*310 FILLER_11_225
*311 FILLER_11_237
*312 FILLER_11_249
*313 FILLER_11_261
*314 FILLER_11_273
*315 FILLER_11_279
*316 FILLER_11_28
*317 FILLER_11_281
*318 FILLER_11_293
*319 FILLER_11_3
*320 FILLER_11_36
*321 FILLER_11_43
*322 FILLER_11_47
*323 FILLER_11_54
*324 FILLER_11_57
*325 FILLER_11_72
*326 FILLER_11_79
*327 FILLER_11_9
*328 FILLER_11_93
*329 FILLER_12_103
*330 FILLER_12_11
*331 FILLER_12_110
*332 FILLER_12_122
*333 FILLER_12_134
*334 FILLER_12_141
*335 FILLER_12_153
*336 FILLER_12_165
*337 FILLER_12_177
*338 FILLER_12_189
*339 FILLER_12_195
*340 FILLER_12_197
*341 FILLER_12_209
*342 FILLER_12_21
*343 FILLER_12_221
*344 FILLER_12_233
*345 FILLER_12_245
*346 FILLER_12_251
*347 FILLER_12_253
*348 FILLER_12_265
*349 FILLER_12_27
*350 FILLER_12_277
*351 FILLER_12_289
*352 FILLER_12_29
*353 FILLER_12_297
*354 FILLER_12_3
*355 FILLER_12_33
*356 FILLER_12_42
*357 FILLER_12_46
*358 FILLER_12_55
*359 FILLER_12_66
*360 FILLER_12_80
*361 FILLER_12_85
*362 FILLER_12_94
*363 FILLER_13_111
*364 FILLER_13_113
*365 FILLER_13_125
*366 FILLER_13_137
*367 FILLER_13_149
*368 FILLER_13_161
*369 FILLER_13_167
*370 FILLER_13_169
*371 FILLER_13_181
*372 FILLER_13_19
*373 FILLER_13_193
*374 FILLER_13_205
*375 FILLER_13_217
*376 FILLER_13_223
*377 FILLER_13_225
*378 FILLER_13_237
*379 FILLER_13_249
*380 FILLER_13_261
*381 FILLER_13_273
*382 FILLER_13_279
*383 FILLER_13_281
*384 FILLER_13_293
*385 FILLER_13_3
*386 FILLER_13_30
*387 FILLER_13_42
*388 FILLER_13_52
*389 FILLER_13_57
*390 FILLER_13_64
*391 FILLER_13_75
*392 FILLER_13_82
*393 FILLER_13_91
*394 FILLER_13_99
*395 FILLER_14_103
*396 FILLER_14_115
*397 FILLER_14_127
*398 FILLER_14_139
*399 FILLER_14_141
*400 FILLER_14_153
*401 FILLER_14_165
*402 FILLER_14_177
*403 FILLER_14_189
*404 FILLER_14_19
*405 FILLER_14_195
*406 FILLER_14_197
*407 FILLER_14_209
*408 FILLER_14_221
*409 FILLER_14_233
*410 FILLER_14_245
*411 FILLER_14_251
*412 FILLER_14_253
*413 FILLER_14_26
*414 FILLER_14_265
*415 FILLER_14_277
*416 FILLER_14_289
*417 FILLER_14_29
*418 FILLER_14_297
*419 FILLER_14_3
*420 FILLER_14_39
*421 FILLER_14_48
*422 FILLER_14_59
*423 FILLER_14_66
*424 FILLER_14_79
*425 FILLER_14_83
*426 FILLER_14_85
*427 FILLER_14_96
*428 FILLER_15_101
*429 FILLER_15_108
*430 FILLER_15_113
*431 FILLER_15_125
*432 FILLER_15_137
*433 FILLER_15_149
*434 FILLER_15_161
*435 FILLER_15_167
*436 FILLER_15_169
*437 FILLER_15_17
*438 FILLER_15_181
*439 FILLER_15_193
*440 FILLER_15_205
*441 FILLER_15_217
*442 FILLER_15_223
*443 FILLER_15_225
*444 FILLER_15_237
*445 FILLER_15_249
*446 FILLER_15_25
*447 FILLER_15_261
*448 FILLER_15_273
*449 FILLER_15_279
*450 FILLER_15_281
*451 FILLER_15_293
*452 FILLER_15_3
*453 FILLER_15_39
*454 FILLER_15_51
*455 FILLER_15_55
*456 FILLER_15_57
*457 FILLER_15_63
*458 FILLER_15_72
*459 FILLER_15_83
*460 FILLER_15_9
*461 FILLER_15_94
*462 FILLER_16_102
*463 FILLER_16_114
*464 FILLER_16_126
*465 FILLER_16_138
*466 FILLER_16_141
*467 FILLER_16_153
*468 FILLER_16_165
*469 FILLER_16_177
*470 FILLER_16_189
*471 FILLER_16_195
*472 FILLER_16_197
*473 FILLER_16_209
*474 FILLER_16_221
*475 FILLER_16_23
*476 FILLER_16_233
*477 FILLER_16_245
*478 FILLER_16_251
*479 FILLER_16_253
*480 FILLER_16_265
*481 FILLER_16_27
*482 FILLER_16_277
*483 FILLER_16_289
*484 FILLER_16_29
*485 FILLER_16_297
*486 FILLER_16_3
*487 FILLER_16_53
*488 FILLER_16_69
*489 FILLER_16_78
*490 FILLER_16_85
*491 FILLER_16_94
*492 FILLER_17_103
*493 FILLER_17_111
*494 FILLER_17_113
*495 FILLER_17_12
*496 FILLER_17_125
*497 FILLER_17_137
*498 FILLER_17_149
*499 FILLER_17_161
*500 FILLER_17_167
*501 FILLER_17_169
*502 FILLER_17_181
*503 FILLER_17_193
*504 FILLER_17_205
*505 FILLER_17_217
*506 FILLER_17_223
*507 FILLER_17_225
*508 FILLER_17_237
*509 FILLER_17_249
*510 FILLER_17_261
*511 FILLER_17_273
*512 FILLER_17_279
*513 FILLER_17_281
*514 FILLER_17_293
*515 FILLER_17_3
*516 FILLER_17_36
*517 FILLER_17_46
*518 FILLER_17_50
*519 FILLER_17_54
*520 FILLER_17_57
*521 FILLER_17_65
*522 FILLER_17_7
*523 FILLER_17_72
*524 FILLER_17_83
*525 FILLER_17_94
*526 FILLER_18_109
*527 FILLER_18_121
*528 FILLER_18_133
*529 FILLER_18_139
*530 FILLER_18_141
*531 FILLER_18_153
*532 FILLER_18_16
*533 FILLER_18_165
*534 FILLER_18_177
*535 FILLER_18_189
*536 FILLER_18_195
*537 FILLER_18_197
*538 FILLER_18_209
*539 FILLER_18_221
*540 FILLER_18_233
*541 FILLER_18_245
*542 FILLER_18_251
*543 FILLER_18_253
*544 FILLER_18_26
*545 FILLER_18_265
*546 FILLER_18_277
*547 FILLER_18_289
*548 FILLER_18_29
*549 FILLER_18_297
*550 FILLER_18_3
*551 FILLER_18_43
*552 FILLER_18_49
*553 FILLER_18_58
*554 FILLER_18_68
*555 FILLER_18_74
*556 FILLER_18_82
*557 FILLER_18_85
*558 FILLER_18_97
*559 FILLER_19_108
*560 FILLER_19_113
*561 FILLER_19_125
*562 FILLER_19_137
*563 FILLER_19_149
*564 FILLER_19_161
*565 FILLER_19_167
*566 FILLER_19_169
*567 FILLER_19_181
*568 FILLER_19_193
*569 FILLER_19_205
*570 FILLER_19_21
*571 FILLER_19_217
*572 FILLER_19_223
*573 FILLER_19_225
*574 FILLER_19_237
*575 FILLER_19_249
*576 FILLER_19_261
*577 FILLER_19_273
*578 FILLER_19_279
*579 FILLER_19_281
*580 FILLER_19_29
*581 FILLER_19_293
*582 FILLER_19_3
*583 FILLER_19_41
*584 FILLER_19_48
*585 FILLER_19_57
*586 FILLER_19_66
*587 FILLER_19_77
*588 FILLER_19_84
*589 FILLER_19_96
*590 FILLER_1_103
*591 FILLER_1_111
*592 FILLER_1_113
*593 FILLER_1_125
*594 FILLER_1_137
*595 FILLER_1_149
*596 FILLER_1_161
*597 FILLER_1_167
*598 FILLER_1_169
*599 FILLER_1_181
*600 FILLER_1_193
*601 FILLER_1_205
*602 FILLER_1_217
*603 FILLER_1_223
*604 FILLER_1_225
*605 FILLER_1_237
*606 FILLER_1_249
*607 FILLER_1_261
*608 FILLER_1_27
*609 FILLER_1_273
*610 FILLER_1_279
*611 FILLER_1_281
*612 FILLER_1_293
*613 FILLER_1_3
*614 FILLER_1_47
*615 FILLER_1_54
*616 FILLER_1_57
*617 FILLER_1_75
*618 FILLER_1_86
*619 FILLER_1_9
*620 FILLER_1_96
*621 FILLER_20_109
*622 FILLER_20_121
*623 FILLER_20_133
*624 FILLER_20_139
*625 FILLER_20_141
*626 FILLER_20_15
*627 FILLER_20_153
*628 FILLER_20_165
*629 FILLER_20_177
*630 FILLER_20_189
*631 FILLER_20_195
*632 FILLER_20_197
*633 FILLER_20_209
*634 FILLER_20_221
*635 FILLER_20_23
*636 FILLER_20_233
*637 FILLER_20_245
*638 FILLER_20_251
*639 FILLER_20_253
*640 FILLER_20_265
*641 FILLER_20_27
*642 FILLER_20_277
*643 FILLER_20_289
*644 FILLER_20_29
*645 FILLER_20_297
*646 FILLER_20_3
*647 FILLER_20_39
*648 FILLER_20_43
*649 FILLER_20_52
*650 FILLER_20_59
*651 FILLER_20_63
*652 FILLER_20_68
*653 FILLER_20_80
*654 FILLER_20_85
*655 FILLER_20_9
*656 FILLER_20_97
*657 FILLER_21_110
*658 FILLER_21_113
*659 FILLER_21_125
*660 FILLER_21_137
*661 FILLER_21_149
*662 FILLER_21_161
*663 FILLER_21_167
*664 FILLER_21_169
*665 FILLER_21_18
*666 FILLER_21_181
*667 FILLER_21_193
*668 FILLER_21_205
*669 FILLER_21_217
*670 FILLER_21_22
*671 FILLER_21_223
*672 FILLER_21_225
*673 FILLER_21_237
*674 FILLER_21_249
*675 FILLER_21_261
*676 FILLER_21_273
*677 FILLER_21_279
*678 FILLER_21_281
*679 FILLER_21_293
*680 FILLER_21_3
*681 FILLER_21_30
*682 FILLER_21_37
*683 FILLER_21_43
*684 FILLER_21_52
*685 FILLER_21_57
*686 FILLER_21_62
*687 FILLER_21_74
*688 FILLER_21_86
*689 FILLER_21_9
*690 FILLER_21_98
*691 FILLER_22_109
*692 FILLER_22_121
*693 FILLER_22_133
*694 FILLER_22_139
*695 FILLER_22_141
*696 FILLER_22_153
*697 FILLER_22_165
*698 FILLER_22_177
*699 FILLER_22_189
*700 FILLER_22_195
*701 FILLER_22_197
*702 FILLER_22_209
*703 FILLER_22_22
*704 FILLER_22_221
*705 FILLER_22_233
*706 FILLER_22_245
*707 FILLER_22_251
*708 FILLER_22_253
*709 FILLER_22_265
*710 FILLER_22_277
*711 FILLER_22_289
*712 FILLER_22_29
*713 FILLER_22_297
*714 FILLER_22_3
*715 FILLER_22_47
*716 FILLER_22_51
*717 FILLER_22_68
*718 FILLER_22_80
*719 FILLER_22_85
*720 FILLER_22_97
*721 FILLER_23_10
*722 FILLER_23_102
*723 FILLER_23_110
*724 FILLER_23_113
*725 FILLER_23_125
*726 FILLER_23_137
*727 FILLER_23_149
*728 FILLER_23_161
*729 FILLER_23_167
*730 FILLER_23_169
*731 FILLER_23_18
*732 FILLER_23_181
*733 FILLER_23_193
*734 FILLER_23_205
*735 FILLER_23_217
*736 FILLER_23_223
*737 FILLER_23_225
*738 FILLER_23_237
*739 FILLER_23_249
*740 FILLER_23_261
*741 FILLER_23_273
*742 FILLER_23_279
*743 FILLER_23_281
*744 FILLER_23_293
*745 FILLER_23_3
*746 FILLER_23_32
*747 FILLER_23_45
*748 FILLER_23_53
*749 FILLER_23_57
*750 FILLER_23_66
*751 FILLER_23_78
*752 FILLER_23_90
*753 FILLER_24_10
*754 FILLER_24_109
*755 FILLER_24_121
*756 FILLER_24_133
*757 FILLER_24_139
*758 FILLER_24_141
*759 FILLER_24_153
*760 FILLER_24_16
*761 FILLER_24_165
*762 FILLER_24_177
*763 FILLER_24_189
*764 FILLER_24_195
*765 FILLER_24_197
*766 FILLER_24_209
*767 FILLER_24_22
*768 FILLER_24_221
*769 FILLER_24_233
*770 FILLER_24_245
*771 FILLER_24_251
*772 FILLER_24_253
*773 FILLER_24_265
*774 FILLER_24_277
*775 FILLER_24_289
*776 FILLER_24_29
*777 FILLER_24_297
*778 FILLER_24_3
*779 FILLER_24_36
*780 FILLER_24_44
*781 FILLER_24_50
*782 FILLER_24_67
*783 FILLER_24_79
*784 FILLER_24_83
*785 FILLER_24_85
*786 FILLER_24_97
*787 FILLER_25_110
*788 FILLER_25_113
*789 FILLER_25_125
*790 FILLER_25_137
*791 FILLER_25_149
*792 FILLER_25_161
*793 FILLER_25_167
*794 FILLER_25_169
*795 FILLER_25_181
*796 FILLER_25_193
*797 FILLER_25_205
*798 FILLER_25_21
*799 FILLER_25_217
*800 FILLER_25_223
*801 FILLER_25_225
*802 FILLER_25_237
*803 FILLER_25_249
*804 FILLER_25_261
*805 FILLER_25_273
*806 FILLER_25_279
*807 FILLER_25_281
*808 FILLER_25_29
*809 FILLER_25_293
*810 FILLER_25_3
*811 FILLER_25_53
*812 FILLER_25_57
*813 FILLER_25_62
*814 FILLER_25_74
*815 FILLER_25_86
*816 FILLER_25_98
*817 FILLER_26_109
*818 FILLER_26_121
*819 FILLER_26_13
*820 FILLER_26_133
*821 FILLER_26_139
*822 FILLER_26_141
*823 FILLER_26_153
*824 FILLER_26_165
*825 FILLER_26_177
*826 FILLER_26_189
*827 FILLER_26_195
*828 FILLER_26_197
*829 FILLER_26_209
*830 FILLER_26_22
*831 FILLER_26_221
*832 FILLER_26_233
*833 FILLER_26_245
*834 FILLER_26_251
*835 FILLER_26_253
*836 FILLER_26_265
*837 FILLER_26_277
*838 FILLER_26_289
*839 FILLER_26_29
*840 FILLER_26_297
*841 FILLER_26_3
*842 FILLER_26_36
*843 FILLER_26_43
*844 FILLER_26_47
*845 FILLER_26_64
*846 FILLER_26_76
*847 FILLER_26_85
*848 FILLER_26_9
*849 FILLER_26_97
*850 FILLER_27_105
*851 FILLER_27_111
*852 FILLER_27_113
*853 FILLER_27_125
*854 FILLER_27_137
*855 FILLER_27_149
*856 FILLER_27_161
*857 FILLER_27_167
*858 FILLER_27_169
*859 FILLER_27_181
*860 FILLER_27_193
*861 FILLER_27_205
*862 FILLER_27_21
*863 FILLER_27_217
*864 FILLER_27_223
*865 FILLER_27_225
*866 FILLER_27_237
*867 FILLER_27_249
*868 FILLER_27_261
*869 FILLER_27_273
*870 FILLER_27_279
*871 FILLER_27_281
*872 FILLER_27_293
*873 FILLER_27_3
*874 FILLER_27_43
*875 FILLER_27_47
*876 FILLER_27_51
*877 FILLER_27_55
*878 FILLER_27_57
*879 FILLER_27_69
*880 FILLER_27_81
*881 FILLER_27_93
*882 FILLER_28_109
*883 FILLER_28_121
*884 FILLER_28_133
*885 FILLER_28_139
*886 FILLER_28_141
*887 FILLER_28_153
*888 FILLER_28_165
*889 FILLER_28_177
*890 FILLER_28_189
*891 FILLER_28_19
*892 FILLER_28_195
*893 FILLER_28_197
*894 FILLER_28_209
*895 FILLER_28_221
*896 FILLER_28_233
*897 FILLER_28_245
*898 FILLER_28_251
*899 FILLER_28_253
*900 FILLER_28_26
*901 FILLER_28_265
*902 FILLER_28_277
*903 FILLER_28_289
*904 FILLER_28_29
*905 FILLER_28_297
*906 FILLER_28_3
*907 FILLER_28_41
*908 FILLER_28_45
*909 FILLER_28_49
*910 FILLER_28_61
*911 FILLER_28_73
*912 FILLER_28_81
*913 FILLER_28_85
*914 FILLER_28_97
*915 FILLER_29_105
*916 FILLER_29_111
*917 FILLER_29_113
*918 FILLER_29_12
*919 FILLER_29_125
*920 FILLER_29_137
*921 FILLER_29_149
*922 FILLER_29_161
*923 FILLER_29_167
*924 FILLER_29_169
*925 FILLER_29_181
*926 FILLER_29_193
*927 FILLER_29_205
*928 FILLER_29_217
*929 FILLER_29_223
*930 FILLER_29_225
*931 FILLER_29_23
*932 FILLER_29_237
*933 FILLER_29_249
*934 FILLER_29_261
*935 FILLER_29_27
*936 FILLER_29_273
*937 FILLER_29_279
*938 FILLER_29_281
*939 FILLER_29_293
*940 FILLER_29_3
*941 FILLER_29_44
*942 FILLER_29_53
*943 FILLER_29_57
*944 FILLER_29_69
*945 FILLER_29_7
*946 FILLER_29_81
*947 FILLER_29_93
*948 FILLER_2_100
*949 FILLER_2_107
*950 FILLER_2_11
*951 FILLER_2_119
*952 FILLER_2_131
*953 FILLER_2_139
*954 FILLER_2_141
*955 FILLER_2_153
*956 FILLER_2_165
*957 FILLER_2_177
*958 FILLER_2_18
*959 FILLER_2_189
*960 FILLER_2_195
*961 FILLER_2_197
*962 FILLER_2_209
*963 FILLER_2_221
*964 FILLER_2_233
*965 FILLER_2_245
*966 FILLER_2_251
*967 FILLER_2_253
*968 FILLER_2_26
*969 FILLER_2_265
*970 FILLER_2_277
*971 FILLER_2_289
*972 FILLER_2_29
*973 FILLER_2_297
*974 FILLER_2_3
*975 FILLER_2_47
*976 FILLER_2_51
*977 FILLER_2_68
*978 FILLER_2_7
*979 FILLER_2_80
*980 FILLER_2_85
*981 FILLER_2_92
*982 FILLER_30_109
*983 FILLER_30_121
*984 FILLER_30_133
*985 FILLER_30_139
*986 FILLER_30_141
*987 FILLER_30_153
*988 FILLER_30_165
*989 FILLER_30_177
*990 FILLER_30_189
*991 FILLER_30_195
*992 FILLER_30_197
*993 FILLER_30_209
*994 FILLER_30_221
*995 FILLER_30_233
*996 FILLER_30_245
*997 FILLER_30_251
*998 FILLER_30_253
*999 FILLER_30_26
*1000 FILLER_30_265
*1001 FILLER_30_277
*1002 FILLER_30_289
*1003 FILLER_30_29
*1004 FILLER_30_297
*1005 FILLER_30_3
*1006 FILLER_30_35
*1007 FILLER_30_44
*1008 FILLER_30_48
*1009 FILLER_30_65
*1010 FILLER_30_77
*1011 FILLER_30_83
*1012 FILLER_30_85
*1013 FILLER_30_9
*1014 FILLER_30_97
*1015 FILLER_31_105
*1016 FILLER_31_111
*1017 FILLER_31_113
*1018 FILLER_31_125
*1019 FILLER_31_137
*1020 FILLER_31_149
*1021 FILLER_31_161
*1022 FILLER_31_167
*1023 FILLER_31_169
*1024 FILLER_31_181
*1025 FILLER_31_193
*1026 FILLER_31_205
*1027 FILLER_31_21
*1028 FILLER_31_217
*1029 FILLER_31_223
*1030 FILLER_31_225
*1031 FILLER_31_237
*1032 FILLER_31_249
*1033 FILLER_31_261
*1034 FILLER_31_273
*1035 FILLER_31_279
*1036 FILLER_31_281
*1037 FILLER_31_29
*1038 FILLER_31_293
*1039 FILLER_31_3
*1040 FILLER_31_40
*1041 FILLER_31_46
*1042 FILLER_31_51
*1043 FILLER_31_55
*1044 FILLER_31_57
*1045 FILLER_31_69
*1046 FILLER_31_81
*1047 FILLER_31_93
*1048 FILLER_32_109
*1049 FILLER_32_121
*1050 FILLER_32_133
*1051 FILLER_32_139
*1052 FILLER_32_141
*1053 FILLER_32_153
*1054 FILLER_32_165
*1055 FILLER_32_17
*1056 FILLER_32_177
*1057 FILLER_32_189
*1058 FILLER_32_195
*1059 FILLER_32_197
*1060 FILLER_32_209
*1061 FILLER_32_21
*1062 FILLER_32_221
*1063 FILLER_32_233
*1064 FILLER_32_245
*1065 FILLER_32_251
*1066 FILLER_32_253
*1067 FILLER_32_265
*1068 FILLER_32_27
*1069 FILLER_32_277
*1070 FILLER_32_289
*1071 FILLER_32_29
*1072 FILLER_32_297
*1073 FILLER_32_3
*1074 FILLER_32_41
*1075 FILLER_32_53
*1076 FILLER_32_65
*1077 FILLER_32_77
*1078 FILLER_32_83
*1079 FILLER_32_85
*1080 FILLER_32_9
*1081 FILLER_32_97
*1082 FILLER_33_105
*1083 FILLER_33_111
*1084 FILLER_33_113
*1085 FILLER_33_125
*1086 FILLER_33_137
*1087 FILLER_33_149
*1088 FILLER_33_161
*1089 FILLER_33_167
*1090 FILLER_33_169
*1091 FILLER_33_181
*1092 FILLER_33_193
*1093 FILLER_33_20
*1094 FILLER_33_205
*1095 FILLER_33_217
*1096 FILLER_33_223
*1097 FILLER_33_225
*1098 FILLER_33_237
*1099 FILLER_33_249
*1100 FILLER_33_261
*1101 FILLER_33_273
*1102 FILLER_33_279
*1103 FILLER_33_281
*1104 FILLER_33_293
*1105 FILLER_33_3
*1106 FILLER_33_32
*1107 FILLER_33_44
*1108 FILLER_33_57
*1109 FILLER_33_69
*1110 FILLER_33_8
*1111 FILLER_33_81
*1112 FILLER_33_93
*1113 FILLER_34_109
*1114 FILLER_34_121
*1115 FILLER_34_133
*1116 FILLER_34_139
*1117 FILLER_34_141
*1118 FILLER_34_15
*1119 FILLER_34_153
*1120 FILLER_34_165
*1121 FILLER_34_177
*1122 FILLER_34_189
*1123 FILLER_34_195
*1124 FILLER_34_197
*1125 FILLER_34_209
*1126 FILLER_34_221
*1127 FILLER_34_233
*1128 FILLER_34_245
*1129 FILLER_34_251
*1130 FILLER_34_253
*1131 FILLER_34_265
*1132 FILLER_34_27
*1133 FILLER_34_277
*1134 FILLER_34_289
*1135 FILLER_34_29
*1136 FILLER_34_297
*1137 FILLER_34_3
*1138 FILLER_34_41
*1139 FILLER_34_53
*1140 FILLER_34_65
*1141 FILLER_34_77
*1142 FILLER_34_83
*1143 FILLER_34_85
*1144 FILLER_34_97
*1145 FILLER_35_105
*1146 FILLER_35_111
*1147 FILLER_35_113
*1148 FILLER_35_125
*1149 FILLER_35_137
*1150 FILLER_35_149
*1151 FILLER_35_15
*1152 FILLER_35_161
*1153 FILLER_35_167
*1154 FILLER_35_169
*1155 FILLER_35_181
*1156 FILLER_35_193
*1157 FILLER_35_205
*1158 FILLER_35_217
*1159 FILLER_35_223
*1160 FILLER_35_225
*1161 FILLER_35_237
*1162 FILLER_35_249
*1163 FILLER_35_261
*1164 FILLER_35_27
*1165 FILLER_35_273
*1166 FILLER_35_279
*1167 FILLER_35_281
*1168 FILLER_35_293
*1169 FILLER_35_3
*1170 FILLER_35_39
*1171 FILLER_35_51
*1172 FILLER_35_55
*1173 FILLER_35_57
*1174 FILLER_35_69
*1175 FILLER_35_81
*1176 FILLER_35_93
*1177 FILLER_36_109
*1178 FILLER_36_121
*1179 FILLER_36_133
*1180 FILLER_36_139
*1181 FILLER_36_141
*1182 FILLER_36_15
*1183 FILLER_36_153
*1184 FILLER_36_165
*1185 FILLER_36_177
*1186 FILLER_36_189
*1187 FILLER_36_195
*1188 FILLER_36_197
*1189 FILLER_36_209
*1190 FILLER_36_221
*1191 FILLER_36_233
*1192 FILLER_36_245
*1193 FILLER_36_251
*1194 FILLER_36_253
*1195 FILLER_36_265
*1196 FILLER_36_27
*1197 FILLER_36_277
*1198 FILLER_36_289
*1199 FILLER_36_29
*1200 FILLER_36_297
*1201 FILLER_36_3
*1202 FILLER_36_41
*1203 FILLER_36_53
*1204 FILLER_36_65
*1205 FILLER_36_77
*1206 FILLER_36_83
*1207 FILLER_36_85
*1208 FILLER_36_97
*1209 FILLER_37_105
*1210 FILLER_37_111
*1211 FILLER_37_113
*1212 FILLER_37_125
*1213 FILLER_37_137
*1214 FILLER_37_149
*1215 FILLER_37_15
*1216 FILLER_37_161
*1217 FILLER_37_167
*1218 FILLER_37_169
*1219 FILLER_37_181
*1220 FILLER_37_193
*1221 FILLER_37_205
*1222 FILLER_37_217
*1223 FILLER_37_223
*1224 FILLER_37_225
*1225 FILLER_37_237
*1226 FILLER_37_249
*1227 FILLER_37_261
*1228 FILLER_37_27
*1229 FILLER_37_273
*1230 FILLER_37_279
*1231 FILLER_37_281
*1232 FILLER_37_293
*1233 FILLER_37_3
*1234 FILLER_37_39
*1235 FILLER_37_51
*1236 FILLER_37_55
*1237 FILLER_37_57
*1238 FILLER_37_69
*1239 FILLER_37_81
*1240 FILLER_37_93
*1241 FILLER_38_109
*1242 FILLER_38_121
*1243 FILLER_38_133
*1244 FILLER_38_139
*1245 FILLER_38_141
*1246 FILLER_38_15
*1247 FILLER_38_153
*1248 FILLER_38_165
*1249 FILLER_38_177
*1250 FILLER_38_189
*1251 FILLER_38_195
*1252 FILLER_38_197
*1253 FILLER_38_209
*1254 FILLER_38_221
*1255 FILLER_38_233
*1256 FILLER_38_245
*1257 FILLER_38_251
*1258 FILLER_38_253
*1259 FILLER_38_265
*1260 FILLER_38_27
*1261 FILLER_38_277
*1262 FILLER_38_289
*1263 FILLER_38_29
*1264 FILLER_38_297
*1265 FILLER_38_3
*1266 FILLER_38_41
*1267 FILLER_38_53
*1268 FILLER_38_65
*1269 FILLER_38_77
*1270 FILLER_38_83
*1271 FILLER_38_85
*1272 FILLER_38_97
*1273 FILLER_39_105
*1274 FILLER_39_111
*1275 FILLER_39_113
*1276 FILLER_39_125
*1277 FILLER_39_137
*1278 FILLER_39_149
*1279 FILLER_39_161
*1280 FILLER_39_167
*1281 FILLER_39_169
*1282 FILLER_39_181
*1283 FILLER_39_193
*1284 FILLER_39_20
*1285 FILLER_39_205
*1286 FILLER_39_217
*1287 FILLER_39_223
*1288 FILLER_39_225
*1289 FILLER_39_237
*1290 FILLER_39_249
*1291 FILLER_39_261
*1292 FILLER_39_273
*1293 FILLER_39_279
*1294 FILLER_39_281
*1295 FILLER_39_293
*1296 FILLER_39_3
*1297 FILLER_39_32
*1298 FILLER_39_44
*1299 FILLER_39_57
*1300 FILLER_39_69
*1301 FILLER_39_8
*1302 FILLER_39_81
*1303 FILLER_39_93
*1304 FILLER_3_10
*1305 FILLER_3_105
*1306 FILLER_3_111
*1307 FILLER_3_113
*1308 FILLER_3_125
*1309 FILLER_3_137
*1310 FILLER_3_149
*1311 FILLER_3_161
*1312 FILLER_3_167
*1313 FILLER_3_169
*1314 FILLER_3_18
*1315 FILLER_3_181
*1316 FILLER_3_193
*1317 FILLER_3_205
*1318 FILLER_3_217
*1319 FILLER_3_223
*1320 FILLER_3_225
*1321 FILLER_3_237
*1322 FILLER_3_24
*1323 FILLER_3_249
*1324 FILLER_3_261
*1325 FILLER_3_273
*1326 FILLER_3_279
*1327 FILLER_3_281
*1328 FILLER_3_293
*1329 FILLER_3_3
*1330 FILLER_3_31
*1331 FILLER_3_43
*1332 FILLER_3_53
*1333 FILLER_3_57
*1334 FILLER_3_69
*1335 FILLER_3_80
*1336 FILLER_3_90
*1337 FILLER_3_98
*1338 FILLER_40_109
*1339 FILLER_40_121
*1340 FILLER_40_133
*1341 FILLER_40_139
*1342 FILLER_40_141
*1343 FILLER_40_15
*1344 FILLER_40_153
*1345 FILLER_40_165
*1346 FILLER_40_177
*1347 FILLER_40_189
*1348 FILLER_40_195
*1349 FILLER_40_197
*1350 FILLER_40_209
*1351 FILLER_40_221
*1352 FILLER_40_233
*1353 FILLER_40_245
*1354 FILLER_40_251
*1355 FILLER_40_253
*1356 FILLER_40_265
*1357 FILLER_40_27
*1358 FILLER_40_277
*1359 FILLER_40_289
*1360 FILLER_40_29
*1361 FILLER_40_297
*1362 FILLER_40_3
*1363 FILLER_40_41
*1364 FILLER_40_53
*1365 FILLER_40_65
*1366 FILLER_40_77
*1367 FILLER_40_83
*1368 FILLER_40_85
*1369 FILLER_40_97
*1370 FILLER_41_105
*1371 FILLER_41_111
*1372 FILLER_41_113
*1373 FILLER_41_125
*1374 FILLER_41_137
*1375 FILLER_41_149
*1376 FILLER_41_15
*1377 FILLER_41_161
*1378 FILLER_41_167
*1379 FILLER_41_169
*1380 FILLER_41_181
*1381 FILLER_41_193
*1382 FILLER_41_205
*1383 FILLER_41_217
*1384 FILLER_41_223
*1385 FILLER_41_225
*1386 FILLER_41_237
*1387 FILLER_41_249
*1388 FILLER_41_261
*1389 FILLER_41_27
*1390 FILLER_41_273
*1391 FILLER_41_279
*1392 FILLER_41_281
*1393 FILLER_41_293
*1394 FILLER_41_3
*1395 FILLER_41_39
*1396 FILLER_41_51
*1397 FILLER_41_55
*1398 FILLER_41_57
*1399 FILLER_41_69
*1400 FILLER_41_81
*1401 FILLER_41_93
*1402 FILLER_42_109
*1403 FILLER_42_121
*1404 FILLER_42_133
*1405 FILLER_42_139
*1406 FILLER_42_141
*1407 FILLER_42_153
*1408 FILLER_42_165
*1409 FILLER_42_177
*1410 FILLER_42_189
*1411 FILLER_42_195
*1412 FILLER_42_197
*1413 FILLER_42_20
*1414 FILLER_42_209
*1415 FILLER_42_221
*1416 FILLER_42_233
*1417 FILLER_42_245
*1418 FILLER_42_251
*1419 FILLER_42_253
*1420 FILLER_42_265
*1421 FILLER_42_277
*1422 FILLER_42_289
*1423 FILLER_42_29
*1424 FILLER_42_297
*1425 FILLER_42_3
*1426 FILLER_42_41
*1427 FILLER_42_53
*1428 FILLER_42_65
*1429 FILLER_42_77
*1430 FILLER_42_8
*1431 FILLER_42_83
*1432 FILLER_42_85
*1433 FILLER_42_97
*1434 FILLER_43_105
*1435 FILLER_43_111
*1436 FILLER_43_113
*1437 FILLER_43_125
*1438 FILLER_43_137
*1439 FILLER_43_149
*1440 FILLER_43_15
*1441 FILLER_43_161
*1442 FILLER_43_167
*1443 FILLER_43_169
*1444 FILLER_43_181
*1445 FILLER_43_193
*1446 FILLER_43_205
*1447 FILLER_43_217
*1448 FILLER_43_223
*1449 FILLER_43_225
*1450 FILLER_43_237
*1451 FILLER_43_249
*1452 FILLER_43_261
*1453 FILLER_43_27
*1454 FILLER_43_273
*1455 FILLER_43_279
*1456 FILLER_43_281
*1457 FILLER_43_293
*1458 FILLER_43_3
*1459 FILLER_43_39
*1460 FILLER_43_51
*1461 FILLER_43_55
*1462 FILLER_43_57
*1463 FILLER_43_69
*1464 FILLER_43_81
*1465 FILLER_43_93
*1466 FILLER_44_109
*1467 FILLER_44_121
*1468 FILLER_44_133
*1469 FILLER_44_139
*1470 FILLER_44_141
*1471 FILLER_44_15
*1472 FILLER_44_153
*1473 FILLER_44_165
*1474 FILLER_44_177
*1475 FILLER_44_189
*1476 FILLER_44_195
*1477 FILLER_44_197
*1478 FILLER_44_209
*1479 FILLER_44_221
*1480 FILLER_44_233
*1481 FILLER_44_245
*1482 FILLER_44_251
*1483 FILLER_44_253
*1484 FILLER_44_265
*1485 FILLER_44_27
*1486 FILLER_44_277
*1487 FILLER_44_289
*1488 FILLER_44_29
*1489 FILLER_44_297
*1490 FILLER_44_3
*1491 FILLER_44_41
*1492 FILLER_44_53
*1493 FILLER_44_65
*1494 FILLER_44_77
*1495 FILLER_44_83
*1496 FILLER_44_85
*1497 FILLER_44_97
*1498 FILLER_45_105
*1499 FILLER_45_111
*1500 FILLER_45_113
*1501 FILLER_45_125
*1502 FILLER_45_137
*1503 FILLER_45_149
*1504 FILLER_45_15
*1505 FILLER_45_161
*1506 FILLER_45_167
*1507 FILLER_45_169
*1508 FILLER_45_181
*1509 FILLER_45_193
*1510 FILLER_45_205
*1511 FILLER_45_217
*1512 FILLER_45_223
*1513 FILLER_45_225
*1514 FILLER_45_237
*1515 FILLER_45_249
*1516 FILLER_45_261
*1517 FILLER_45_27
*1518 FILLER_45_273
*1519 FILLER_45_279
*1520 FILLER_45_281
*1521 FILLER_45_293
*1522 FILLER_45_3
*1523 FILLER_45_39
*1524 FILLER_45_51
*1525 FILLER_45_55
*1526 FILLER_45_57
*1527 FILLER_45_69
*1528 FILLER_45_81
*1529 FILLER_45_93
*1530 FILLER_46_109
*1531 FILLER_46_121
*1532 FILLER_46_133
*1533 FILLER_46_139
*1534 FILLER_46_141
*1535 FILLER_46_153
*1536 FILLER_46_165
*1537 FILLER_46_177
*1538 FILLER_46_189
*1539 FILLER_46_195
*1540 FILLER_46_197
*1541 FILLER_46_20
*1542 FILLER_46_209
*1543 FILLER_46_221
*1544 FILLER_46_233
*1545 FILLER_46_245
*1546 FILLER_46_251
*1547 FILLER_46_253
*1548 FILLER_46_265
*1549 FILLER_46_277
*1550 FILLER_46_289
*1551 FILLER_46_29
*1552 FILLER_46_297
*1553 FILLER_46_3
*1554 FILLER_46_41
*1555 FILLER_46_53
*1556 FILLER_46_65
*1557 FILLER_46_77
*1558 FILLER_46_8
*1559 FILLER_46_83
*1560 FILLER_46_85
*1561 FILLER_46_97
*1562 FILLER_47_105
*1563 FILLER_47_111
*1564 FILLER_47_113
*1565 FILLER_47_125
*1566 FILLER_47_137
*1567 FILLER_47_149
*1568 FILLER_47_15
*1569 FILLER_47_161
*1570 FILLER_47_167
*1571 FILLER_47_169
*1572 FILLER_47_181
*1573 FILLER_47_193
*1574 FILLER_47_205
*1575 FILLER_47_217
*1576 FILLER_47_223
*1577 FILLER_47_225
*1578 FILLER_47_237
*1579 FILLER_47_249
*1580 FILLER_47_261
*1581 FILLER_47_27
*1582 FILLER_47_273
*1583 FILLER_47_279
*1584 FILLER_47_281
*1585 FILLER_47_293
*1586 FILLER_47_3
*1587 FILLER_47_39
*1588 FILLER_47_51
*1589 FILLER_47_55
*1590 FILLER_47_57
*1591 FILLER_47_69
*1592 FILLER_47_81
*1593 FILLER_47_93
*1594 FILLER_48_109
*1595 FILLER_48_121
*1596 FILLER_48_133
*1597 FILLER_48_139
*1598 FILLER_48_141
*1599 FILLER_48_15
*1600 FILLER_48_153
*1601 FILLER_48_165
*1602 FILLER_48_177
*1603 FILLER_48_189
*1604 FILLER_48_195
*1605 FILLER_48_197
*1606 FILLER_48_209
*1607 FILLER_48_221
*1608 FILLER_48_233
*1609 FILLER_48_245
*1610 FILLER_48_251
*1611 FILLER_48_253
*1612 FILLER_48_265
*1613 FILLER_48_27
*1614 FILLER_48_277
*1615 FILLER_48_289
*1616 FILLER_48_29
*1617 FILLER_48_297
*1618 FILLER_48_3
*1619 FILLER_48_41
*1620 FILLER_48_53
*1621 FILLER_48_65
*1622 FILLER_48_77
*1623 FILLER_48_83
*1624 FILLER_48_85
*1625 FILLER_48_97
*1626 FILLER_49_105
*1627 FILLER_49_111
*1628 FILLER_49_113
*1629 FILLER_49_125
*1630 FILLER_49_137
*1631 FILLER_49_149
*1632 FILLER_49_15
*1633 FILLER_49_161
*1634 FILLER_49_167
*1635 FILLER_49_169
*1636 FILLER_49_181
*1637 FILLER_49_193
*1638 FILLER_49_205
*1639 FILLER_49_217
*1640 FILLER_49_223
*1641 FILLER_49_225
*1642 FILLER_49_237
*1643 FILLER_49_249
*1644 FILLER_49_261
*1645 FILLER_49_27
*1646 FILLER_49_273
*1647 FILLER_49_279
*1648 FILLER_49_281
*1649 FILLER_49_293
*1650 FILLER_49_3