*SPEF "ieee 1481-1999"
*DESIGN "meriac_tt03_play_tune"
*DATE "11:11:11 Fri 11 11, 1111"
*VENDOR "OpenRCX"
*PROGRAM "Parallel Extraction"
*VERSION "1.0"
*DESIGN_FLOW "NAME_SCOPE LOCAL" "PIN_CAP NONE"
*DIVIDER /
*DELIMITER :
*BUS_DELIMITER []
*T_UNIT 1 NS
*C_UNIT 1 PF
*R_UNIT 1 OHM
*L_UNIT 1 HENRY

*NAME_MAP
*1 io_in[0]
*2 io_in[1]
*3 io_in[2]
*4 io_in[3]
*5 io_in[4]
*6 io_in[5]
*7 io_in[6]
*8 io_in[7]
*9 io_out[0]
*10 io_out[1]
*11 net2
*12 net3
*13 net4
*14 net5
*15 net6
*16 net7
*19 _008_
*20 _009_
*21 _010_
*22 _011_
*23 _012_
*24 _013_
*25 _014_
*26 _015_
*27 _016_
*28 _017_
*29 _018_
*30 _019_
*31 _020_
*32 _021_
*33 _022_
*34 _023_
*35 _024_
*36 _025_
*37 _026_
*38 _027_
*39 _028_
*40 _029_
*41 _030_
*42 _031_
*43 _032_
*44 _033_
*45 _034_
*46 _035_
*47 _036_
*48 _037_
*49 _038_
*50 _039_
*51 _040_
*52 _041_
*53 _042_
*54 _043_
*55 _044_
*56 _045_
*57 _046_
*58 _047_
*59 _048_
*60 _049_
*61 _050_
*62 _051_
*63 _052_
*64 _053_
*65 _054_
*66 _055_
*67 _056_
*68 _057_
*69 _058_
*70 _059_
*71 _060_
*72 _061_
*73 _062_
*74 _063_
*75 _064_
*76 _065_
*77 _066_
*78 _067_
*79 _068_
*80 _069_
*81 _070_
*82 _071_
*83 _072_
*84 _073_
*85 _074_
*86 _075_
*87 _076_
*88 _077_
*89 _078_
*90 _079_
*91 _080_
*92 _081_
*93 _082_
*94 _083_
*95 _084_
*96 _085_
*97 _086_
*98 _087_
*99 _088_
*100 _089_
*101 _090_
*102 _091_
*103 _092_
*104 _093_
*105 _094_
*106 _095_
*107 _096_
*108 _097_
*109 _098_
*110 _099_
*111 _100_
*112 _101_
*113 _102_
*114 _103_
*115 _104_
*116 _105_
*117 _106_
*118 _107_
*119 _108_
*120 _109_
*121 _110_
*122 _111_
*123 _112_
*124 _113_
*125 _114_
*126 _115_
*127 _116_
*128 _117_
*129 _118_
*130 _119_
*131 _120_
*132 _121_
*133 _122_
*134 _123_
*135 _124_
*136 _125_
*137 _126_
*138 _127_
*139 _128_
*140 _129_
*141 _130_
*142 _131_
*143 _132_
*144 _133_
*145 _134_
*146 _135_
*147 _136_
*148 _137_
*149 _138_
*150 _139_
*151 _140_
*152 _141_
*153 _142_
*154 _143_
*155 _144_
*156 _145_
*157 _146_
*158 _147_
*159 _148_
*160 _149_
*161 _150_
*162 _151_
*163 _152_
*164 _153_
*165 _154_
*166 _155_
*167 _156_
*168 _157_
*169 _158_
*170 _159_
*171 _160_
*172 _161_
*173 _162_
*174 _163_
*175 _164_
*176 _165_
*177 _166_
*178 _167_
*179 _168_
*180 _169_
*181 _170_
*182 _171_
*183 _172_
*184 _173_
*185 _174_
*186 _175_
*187 _176_
*188 _177_
*189 _178_
*190 _179_
*191 _180_
*192 _181_
*193 _182_
*194 _183_
*195 _184_
*196 _185_
*197 _186_
*198 _187_
*199 _188_
*200 _189_
*201 _190_
*202 _191_
*203 _192_
*204 _193_
*205 _194_
*206 _195_
*207 _196_
*208 _197_
*209 _198_
*210 _199_
*211 _200_
*212 _201_
*213 _202_
*214 _203_
*215 _204_
*216 _205_
*217 _206_
*218 _207_
*219 _208_
*220 _209_
*221 _210_
*222 _211_
*223 _212_
*224 clknet_0_io_in[0]
*225 clknet_1_0__leaf_io_in[0]
*226 clknet_1_1__leaf_io_in[0]
*227 counter\[0\]
*228 counter\[1\]
*229 counter\[2\]
*230 counter\[3\]
*231 counter\[4\]
*232 counter\[5\]
*233 counter\[6\]
*234 counter\[7\]
*235 meriac_tune_db\.address\[0\]
*236 meriac_tune_db\.address\[1\]
*237 meriac_tune_db\.address\[2\]
*238 meriac_tune_db\.address\[3\]
*239 meriac_tune_db\.address\[4\]
*240 meriac_tune_db\.address\[5\]
*241 meriac_tune_db\.address\[6\]
*242 net1
*243 net10
*244 net11
*245 net12
*246 net13
*247 net14
*248 net15
*249 net8
*250 net9
*251 speaker
*252 FILLER_0_101
*253 FILLER_0_109
*254 FILLER_0_113
*255 FILLER_0_118
*256 FILLER_0_12
*257 FILLER_0_130
*258 FILLER_0_138
*259 FILLER_0_141
*260 FILLER_0_153
*261 FILLER_0_165
*262 FILLER_0_169
*263 FILLER_0_181
*264 FILLER_0_19
*265 FILLER_0_193
*266 FILLER_0_197
*267 FILLER_0_209
*268 FILLER_0_221
*269 FILLER_0_225
*270 FILLER_0_237
*271 FILLER_0_249
*272 FILLER_0_253
*273 FILLER_0_26
*274 FILLER_0_265
*275 FILLER_0_277
*276 FILLER_0_281
*277 FILLER_0_29
*278 FILLER_0_293
*279 FILLER_0_3
*280 FILLER_0_53
*281 FILLER_0_57
*282 FILLER_0_62
*283 FILLER_0_82
*284 FILLER_0_85
*285 FILLER_0_90
*286 FILLER_0_96
*287 FILLER_10_110
*288 FILLER_10_122
*289 FILLER_10_131
*290 FILLER_10_139
*291 FILLER_10_141
*292 FILLER_10_153
*293 FILLER_10_165
*294 FILLER_10_17
*295 FILLER_10_177
*296 FILLER_10_189
*297 FILLER_10_195
*298 FILLER_10_197
*299 FILLER_10_209
*300 FILLER_10_221
*301 FILLER_10_233
*302 FILLER_10_245
*303 FILLER_10_251
*304 FILLER_10_253
*305 FILLER_10_26
*306 FILLER_10_265
*307 FILLER_10_277
*308 FILLER_10_289
*309 FILLER_10_29
*310 FILLER_10_297
*311 FILLER_10_3
*312 FILLER_10_38
*313 FILLER_10_46
*314 FILLER_10_54
*315 FILLER_10_65
*316 FILLER_10_73
*317 FILLER_10_82
*318 FILLER_10_85
*319 FILLER_10_9
*320 FILLER_10_95
*321 FILLER_11_102
*322 FILLER_11_110
*323 FILLER_11_113
*324 FILLER_11_12
*325 FILLER_11_126
*326 FILLER_11_138
*327 FILLER_11_150
*328 FILLER_11_162
*329 FILLER_11_169
*330 FILLER_11_181
*331 FILLER_11_193
*332 FILLER_11_205
*333 FILLER_11_217
*334 FILLER_11_223
*335 FILLER_11_225
*336 FILLER_11_237
*337 FILLER_11_249
*338 FILLER_11_261
*339 FILLER_11_273
*340 FILLER_11_279
*341 FILLER_11_281
*342 FILLER_11_293
*343 FILLER_11_3
*344 FILLER_11_36
*345 FILLER_11_40
*346 FILLER_11_48
*347 FILLER_11_57
*348 FILLER_11_64
*349 FILLER_11_7
*350 FILLER_11_70
*351 FILLER_11_74
*352 FILLER_11_84
*353 FILLER_11_92
*354 FILLER_12_108
*355 FILLER_12_116
*356 FILLER_12_126
*357 FILLER_12_138
*358 FILLER_12_141
*359 FILLER_12_153
*360 FILLER_12_165
*361 FILLER_12_177
*362 FILLER_12_189
*363 FILLER_12_195
*364 FILLER_12_197
*365 FILLER_12_209
*366 FILLER_12_21
*367 FILLER_12_221
*368 FILLER_12_233
*369 FILLER_12_245
*370 FILLER_12_251
*371 FILLER_12_253
*372 FILLER_12_265
*373 FILLER_12_27
*374 FILLER_12_277
*375 FILLER_12_289
*376 FILLER_12_29
*377 FILLER_12_297
*378 FILLER_12_3
*379 FILLER_12_40
*380 FILLER_12_46
*381 FILLER_12_56
*382 FILLER_12_62
*383 FILLER_12_71
*384 FILLER_12_77
*385 FILLER_12_82
*386 FILLER_12_85
*387 FILLER_12_91
*388 FILLER_12_97
*389 FILLER_13_10
*390 FILLER_13_103
*391 FILLER_13_110
*392 FILLER_13_113
*393 FILLER_13_120
*394 FILLER_13_127
*395 FILLER_13_139
*396 FILLER_13_151
*397 FILLER_13_163
*398 FILLER_13_167
*399 FILLER_13_169
*400 FILLER_13_181
*401 FILLER_13_19
*402 FILLER_13_193
*403 FILLER_13_205
*404 FILLER_13_217
*405 FILLER_13_223
*406 FILLER_13_225
*407 FILLER_13_237
*408 FILLER_13_249
*409 FILLER_13_261
*410 FILLER_13_273
*411 FILLER_13_279
*412 FILLER_13_281
*413 FILLER_13_293
*414 FILLER_13_3
*415 FILLER_13_30
*416 FILLER_13_54
*417 FILLER_13_57
*418 FILLER_13_61
*419 FILLER_13_66
*420 FILLER_13_70
*421 FILLER_13_76
*422 FILLER_13_84
*423 FILLER_13_91
*424 FILLER_14_104
*425 FILLER_14_113
*426 FILLER_14_123
*427 FILLER_14_131
*428 FILLER_14_139
*429 FILLER_14_141
*430 FILLER_14_153
*431 FILLER_14_165
*432 FILLER_14_177
*433 FILLER_14_189
*434 FILLER_14_195
*435 FILLER_14_197
*436 FILLER_14_209
*437 FILLER_14_21
*438 FILLER_14_221
*439 FILLER_14_233
*440 FILLER_14_245
*441 FILLER_14_251
*442 FILLER_14_253
*443 FILLER_14_265
*444 FILLER_14_27
*445 FILLER_14_277
*446 FILLER_14_289
*447 FILLER_14_29
*448 FILLER_14_297
*449 FILLER_14_3
*450 FILLER_14_45
*451 FILLER_14_51
*452 FILLER_14_60
*453 FILLER_14_71
*454 FILLER_14_82
*455 FILLER_14_85
*456 FILLER_14_96
*457 FILLER_15_109
*458 FILLER_15_113
*459 FILLER_15_117
*460 FILLER_15_124
*461 FILLER_15_132
*462 FILLER_15_144
*463 FILLER_15_156
*464 FILLER_15_16
*465 FILLER_15_169
*466 FILLER_15_181
*467 FILLER_15_193
*468 FILLER_15_205
*469 FILLER_15_217
*470 FILLER_15_223
*471 FILLER_15_225
*472 FILLER_15_237
*473 FILLER_15_249
*474 FILLER_15_261
*475 FILLER_15_273
*476 FILLER_15_279
*477 FILLER_15_281
*478 FILLER_15_293
*479 FILLER_15_3
*480 FILLER_15_36
*481 FILLER_15_44
*482 FILLER_15_53
*483 FILLER_15_57
*484 FILLER_15_70
*485 FILLER_15_76
*486 FILLER_15_80
*487 FILLER_15_92
*488 FILLER_15_99
*489 FILLER_16_103
*490 FILLER_16_111
*491 FILLER_16_117
*492 FILLER_16_123
*493 FILLER_16_135
*494 FILLER_16_139
*495 FILLER_16_141
*496 FILLER_16_153
*497 FILLER_16_165
*498 FILLER_16_177
*499 FILLER_16_189
*500 FILLER_16_195
*501 FILLER_16_197
*502 FILLER_16_209
*503 FILLER_16_221
*504 FILLER_16_233
*505 FILLER_16_245
*506 FILLER_16_251
*507 FILLER_16_253
*508 FILLER_16_26
*509 FILLER_16_265
*510 FILLER_16_277
*511 FILLER_16_289
*512 FILLER_16_29
*513 FILLER_16_297
*514 FILLER_16_3
*515 FILLER_16_39
*516 FILLER_16_43
*517 FILLER_16_47
*518 FILLER_16_54
*519 FILLER_16_65
*520 FILLER_16_75
*521 FILLER_16_82
*522 FILLER_16_85
*523 FILLER_16_9
*524 FILLER_16_95
*525 FILLER_17_101
*526 FILLER_17_110
*527 FILLER_17_113
*528 FILLER_17_123
*529 FILLER_17_135
*530 FILLER_17_147
*531 FILLER_17_15
*532 FILLER_17_159
*533 FILLER_17_167
*534 FILLER_17_169
*535 FILLER_17_181
*536 FILLER_17_193
*537 FILLER_17_205
*538 FILLER_17_217
*539 FILLER_17_223
*540 FILLER_17_225
*541 FILLER_17_237
*542 FILLER_17_249
*543 FILLER_17_261
*544 FILLER_17_273
*545 FILLER_17_279
*546 FILLER_17_281
*547 FILLER_17_293
*548 FILLER_17_3
*549 FILLER_17_35
*550 FILLER_17_48
*551 FILLER_17_57
*552 FILLER_17_67
*553 FILLER_17_71
*554 FILLER_17_78
*555 FILLER_17_8
*556 FILLER_17_82
*557 FILLER_17_90
*558 FILLER_18_103
*559 FILLER_18_114
*560 FILLER_18_124
*561 FILLER_18_131
*562 FILLER_18_139
*563 FILLER_18_141
*564 FILLER_18_153
*565 FILLER_18_165
*566 FILLER_18_177
*567 FILLER_18_189
*568 FILLER_18_19
*569 FILLER_18_195
*570 FILLER_18_197
*571 FILLER_18_209
*572 FILLER_18_221
*573 FILLER_18_233
*574 FILLER_18_245
*575 FILLER_18_251
*576 FILLER_18_253
*577 FILLER_18_26
*578 FILLER_18_265
*579 FILLER_18_277
*580 FILLER_18_289
*581 FILLER_18_29
*582 FILLER_18_297
*583 FILLER_18_3
*584 FILLER_18_34
*585 FILLER_18_54
*586 FILLER_18_63
*587 FILLER_18_75
*588 FILLER_18_82
*589 FILLER_18_85
*590 FILLER_18_9
*591 FILLER_18_96
*592 FILLER_19_103
*593 FILLER_19_110
*594 FILLER_19_113
*595 FILLER_19_119
*596 FILLER_19_131
*597 FILLER_19_143
*598 FILLER_19_155
*599 FILLER_19_167
*600 FILLER_19_169
*601 FILLER_19_181
*602 FILLER_19_193
*603 FILLER_19_205
*604 FILLER_19_21
*605 FILLER_19_217
*606 FILLER_19_223
*607 FILLER_19_225
*608 FILLER_19_237
*609 FILLER_19_249
*610 FILLER_19_261
*611 FILLER_19_273
*612 FILLER_19_279
*613 FILLER_19_281
*614 FILLER_19_293
*615 FILLER_19_3
*616 FILLER_19_38
*617 FILLER_19_46
*618 FILLER_19_54
*619 FILLER_19_57
*620 FILLER_19_66
*621 FILLER_19_74
*622 FILLER_19_79
*623 FILLER_19_91
*624 FILLER_1_105
*625 FILLER_1_111
*626 FILLER_1_113
*627 FILLER_1_118
*628 FILLER_1_12
*629 FILLER_1_130
*630 FILLER_1_142
*631 FILLER_1_154
*632 FILLER_1_16
*633 FILLER_1_166
*634 FILLER_1_169
*635 FILLER_1_181
*636 FILLER_1_193
*637 FILLER_1_205
*638 FILLER_1_217
*639 FILLER_1_223
*640 FILLER_1_225
*641 FILLER_1_237
*642 FILLER_1_249
*643 FILLER_1_261
*644 FILLER_1_273
*645 FILLER_1_279
*646 FILLER_1_281
*647 FILLER_1_293
*648 FILLER_1_3
*649 FILLER_1_37
*650 FILLER_1_44
*651 FILLER_1_54
*652 FILLER_1_57
*653 FILLER_1_62
*654 FILLER_1_66
*655 FILLER_1_8
*656 FILLER_1_84
*657 FILLER_20_107
*658 FILLER_20_115
*659 FILLER_20_12
*660 FILLER_20_127
*661 FILLER_20_139
*662 FILLER_20_141
*663 FILLER_20_153
*664 FILLER_20_165
*665 FILLER_20_177
*666 FILLER_20_189
*667 FILLER_20_195
*668 FILLER_20_197
*669 FILLER_20_209
*670 FILLER_20_221
*671 FILLER_20_233
*672 FILLER_20_245
*673 FILLER_20_251
*674 FILLER_20_253
*675 FILLER_20_26
*676 FILLER_20_265
*677 FILLER_20_277
*678 FILLER_20_289
*679 FILLER_20_29
*680 FILLER_20_297
*681 FILLER_20_3
*682 FILLER_20_42
*683 FILLER_20_57
*684 FILLER_20_61
*685 FILLER_20_66
*686 FILLER_20_7
*687 FILLER_20_77
*688 FILLER_20_83
*689 FILLER_20_85
*690 FILLER_20_95
*691 FILLER_20_99
*692 FILLER_21_106
*693 FILLER_21_113
*694 FILLER_21_125
*695 FILLER_21_137
*696 FILLER_21_149
*697 FILLER_21_161
*698 FILLER_21_167
*699 FILLER_21_169
*700 FILLER_21_181
*701 FILLER_21_193
*702 FILLER_21_205
*703 FILLER_21_21
*704 FILLER_21_217
*705 FILLER_21_223
*706 FILLER_21_225
*707 FILLER_21_237
*708 FILLER_21_249
*709 FILLER_21_261
*710 FILLER_21_273
*711 FILLER_21_279
*712 FILLER_21_281
*713 FILLER_21_29
*714 FILLER_21_293
*715 FILLER_21_3
*716 FILLER_21_47
*717 FILLER_21_54
*718 FILLER_21_57
*719 FILLER_21_68
*720 FILLER_21_76
*721 FILLER_21_86
*722 FILLER_21_98
*723 FILLER_22_102
*724 FILLER_22_114
*725 FILLER_22_126
*726 FILLER_22_138
*727 FILLER_22_141
*728 FILLER_22_153
*729 FILLER_22_165
*730 FILLER_22_177
*731 FILLER_22_18
*732 FILLER_22_189
*733 FILLER_22_195
*734 FILLER_22_197
*735 FILLER_22_209
*736 FILLER_22_22
*737 FILLER_22_221
*738 FILLER_22_233
*739 FILLER_22_245
*740 FILLER_22_251
*741 FILLER_22_253
*742 FILLER_22_26
*743 FILLER_22_265
*744 FILLER_22_277
*745 FILLER_22_289
*746 FILLER_22_29
*747 FILLER_22_297
*748 FILLER_22_3
*749 FILLER_22_36
*750 FILLER_22_40
*751 FILLER_22_45
*752 FILLER_22_53
*753 FILLER_22_65
*754 FILLER_22_76
*755 FILLER_22_85
*756 FILLER_22_9
*757 FILLER_22_90
*758 FILLER_23_10
*759 FILLER_23_105
*760 FILLER_23_111
*761 FILLER_23_113
*762 FILLER_23_125
*763 FILLER_23_137
*764 FILLER_23_149
*765 FILLER_23_161
*766 FILLER_23_167
*767 FILLER_23_169
*768 FILLER_23_181
*769 FILLER_23_193
*770 FILLER_23_20
*771 FILLER_23_205
*772 FILLER_23_217
*773 FILLER_23_223
*774 FILLER_23_225
*775 FILLER_23_237
*776 FILLER_23_249
*777 FILLER_23_261
*778 FILLER_23_273
*779 FILLER_23_279
*780 FILLER_23_281
*781 FILLER_23_293
*782 FILLER_23_3
*783 FILLER_23_31
*784 FILLER_23_40
*785 FILLER_23_47
*786 FILLER_23_55
*787 FILLER_23_57
*788 FILLER_23_65
*789 FILLER_23_69
*790 FILLER_23_81
*791 FILLER_23_93
*792 FILLER_24_109
*793 FILLER_24_121
*794 FILLER_24_133
*795 FILLER_24_139
*796 FILLER_24_141
*797 FILLER_24_153
*798 FILLER_24_165
*799 FILLER_24_177
*800 FILLER_24_189
*801 FILLER_24_195
*802 FILLER_24_197
*803 FILLER_24_209
*804 FILLER_24_221
*805 FILLER_24_233
*806 FILLER_24_245
*807 FILLER_24_251
*808 FILLER_24_253
*809 FILLER_24_26
*810 FILLER_24_265
*811 FILLER_24_277
*812 FILLER_24_289
*813 FILLER_24_29
*814 FILLER_24_297
*815 FILLER_24_3
*816 FILLER_24_36
*817 FILLER_24_56
*818 FILLER_24_68
*819 FILLER_24_80
*820 FILLER_24_85
*821 FILLER_24_9
*822 FILLER_24_97
*823 FILLER_25_105
*824 FILLER_25_111
*825 FILLER_25_113
*826 FILLER_25_125
*827 FILLER_25_137
*828 FILLER_25_149
*829 FILLER_25_161
*830 FILLER_25_167
*831 FILLER_25_169
*832 FILLER_25_181
*833 FILLER_25_193
*834 FILLER_25_205
*835 FILLER_25_21
*836 FILLER_25_217
*837 FILLER_25_223
*838 FILLER_25_225
*839 FILLER_25_237
*840 FILLER_25_249
*841 FILLER_25_261
*842 FILLER_25_273
*843 FILLER_25_279
*844 FILLER_25_281
*845 FILLER_25_29
*846 FILLER_25_293
*847 FILLER_25_3
*848 FILLER_25_47
*849 FILLER_25_55
*850 FILLER_25_57
*851 FILLER_25_69
*852 FILLER_25_81
*853 FILLER_25_93
*854 FILLER_26_109
*855 FILLER_26_11
*856 FILLER_26_121
*857 FILLER_26_133
*858 FILLER_26_139
*859 FILLER_26_141
*860 FILLER_26_15
*861 FILLER_26_153
*862 FILLER_26_165
*863 FILLER_26_177
*864 FILLER_26_189
*865 FILLER_26_195
*866 FILLER_26_197
*867 FILLER_26_209
*868 FILLER_26_221
*869 FILLER_26_233
*870 FILLER_26_245
*871 FILLER_26_251
*872 FILLER_26_253
*873 FILLER_26_265
*874 FILLER_26_27
*875 FILLER_26_277
*876 FILLER_26_289
*877 FILLER_26_29
*878 FILLER_26_297
*879 FILLER_26_3
*880 FILLER_26_35
*881 FILLER_26_47
*882 FILLER_26_59
*883 FILLER_26_71
*884 FILLER_26_83
*885 FILLER_26_85
*886 FILLER_26_97
*887 FILLER_27_105
*888 FILLER_27_111
*889 FILLER_27_113
*890 FILLER_27_125
*891 FILLER_27_137
*892 FILLER_27_149
*893 FILLER_27_15
*894 FILLER_27_161
*895 FILLER_27_167
*896 FILLER_27_169
*897 FILLER_27_181
*898 FILLER_27_193
*899 FILLER_27_205
*900 FILLER_27_217
*901 FILLER_27_223
*902 FILLER_27_225
*903 FILLER_27_237
*904 FILLER_27_249
*905 FILLER_27_261
*906 FILLER_27_27
*907 FILLER_27_273
*908 FILLER_27_279
*909 FILLER_27_281
*910 FILLER_27_293
*911 FILLER_27_3
*912 FILLER_27_39
*913 FILLER_27_51
*914 FILLER_27_55
*915 FILLER_27_57
*916 FILLER_27_69
*917 FILLER_27_81
*918 FILLER_27_93
*919 FILLER_28_109
*920 FILLER_28_121
*921 FILLER_28_133
*922 FILLER_28_139
*923 FILLER_28_141
*924 FILLER_28_15
*925 FILLER_28_153
*926 FILLER_28_165
*927 FILLER_28_177
*928 FILLER_28_189
*929 FILLER_28_195
*930 FILLER_28_197
*931 FILLER_28_209
*932 FILLER_28_221
*933 FILLER_28_233
*934 FILLER_28_245
*935 FILLER_28_251
*936 FILLER_28_253
*937 FILLER_28_265
*938 FILLER_28_27
*939 FILLER_28_277
*940 FILLER_28_289
*941 FILLER_28_29
*942 FILLER_28_297
*943 FILLER_28_3
*944 FILLER_28_41
*945 FILLER_28_53
*946 FILLER_28_65
*947 FILLER_28_77
*948 FILLER_28_83
*949 FILLER_28_85
*950 FILLER_28_97
*951 FILLER_29_105
*952 FILLER_29_111
*953 FILLER_29_113
*954 FILLER_29_125
*955 FILLER_29_137
*956 FILLER_29_149
*957 FILLER_29_15
*958 FILLER_29_161
*959 FILLER_29_167
*960 FILLER_29_169
*961 FILLER_29_181
*962 FILLER_29_193
*963 FILLER_29_205
*964 FILLER_29_217
*965 FILLER_29_223
*966 FILLER_29_225
*967 FILLER_29_237
*968 FILLER_29_249
*969 FILLER_29_261
*970 FILLER_29_27
*971 FILLER_29_273
*972 FILLER_29_279
*973 FILLER_29_281
*974 FILLER_29_293
*975 FILLER_29_3
*976 FILLER_29_39
*977 FILLER_29_51
*978 FILLER_29_55
*979 FILLER_29_57
*980 FILLER_29_69
*981 FILLER_29_81
*982 FILLER_29_93
*983 FILLER_2_107
*984 FILLER_2_116
*985 FILLER_2_124
*986 FILLER_2_136
*987 FILLER_2_141
*988 FILLER_2_153
*989 FILLER_2_165
*990 FILLER_2_177
*991 FILLER_2_189
*992 FILLER_2_195
*993 FILLER_2_197
*994 FILLER_2_209
*995 FILLER_2_22
*996 FILLER_2_221
*997 FILLER_2_233
*998 FILLER_2_245
*999 FILLER_2_251
*1000 FILLER_2_253
*1001 FILLER_2_265
*1002 FILLER_2_277
*1003 FILLER_2_289
*1004 FILLER_2_29
*1005 FILLER_2_297
*1006 FILLER_2_3
*1007 FILLER_2_37
*1008 FILLER_2_45
*1009 FILLER_2_62
*1010 FILLER_2_71
*1011 FILLER_2_77
*1012 FILLER_2_82
*1013 FILLER_2_85
*1014 FILLER_2_94
*1015 FILLER_30_109
*1016 FILLER_30_121
*1017 FILLER_30_133
*1018 FILLER_30_139
*1019 FILLER_30_141
*1020 FILLER_30_15
*1021 FILLER_30_153
*1022 FILLER_30_165
*1023 FILLER_30_177
*1024 FILLER_30_189
*1025 FILLER_30_195
*1026 FILLER_30_197
*1027 FILLER_30_209
*1028 FILLER_30_221
*1029 FILLER_30_233
*1030 FILLER_30_245
*1031 FILLER_30_251
*1032 FILLER_30_253
*1033 FILLER_30_265
*1034 FILLER_30_27
*1035 FILLER_30_277
*1036 FILLER_30_289
*1037 FILLER_30_29
*1038 FILLER_30_297
*1039 FILLER_30_3
*1040 FILLER_30_41
*1041 FILLER_30_53
*1042 FILLER_30_65
*1043 FILLER_30_77
*1044 FILLER_30_83
*1045 FILLER_30_85
*1046 FILLER_30_97
*1047 FILLER_31_105
*1048 FILLER_31_111
*1049 FILLER_31_113
*1050 FILLER_31_125
*1051 FILLER_31_137
*1052 FILLER_31_149
*1053 FILLER_31_161
*1054 FILLER_31_167
*1055 FILLER_31_169
*1056 FILLER_31_181
*1057 FILLER_31_193
*1058 FILLER_31_205
*1059 FILLER_31_21
*1060 FILLER_31_217
*1061 FILLER_31_223
*1062 FILLER_31_225
*1063 FILLER_31_237
*1064 FILLER_31_249
*1065 FILLER_31_261
*1066 FILLER_31_273
*1067 FILLER_31_279
*1068 FILLER_31_281
*1069 FILLER_31_293
*1070 FILLER_31_3
*1071 FILLER_31_33
*1072 FILLER_31_45
*1073 FILLER_31_53
*1074 FILLER_31_57
*1075 FILLER_31_69
*1076 FILLER_31_81
*1077 FILLER_31_9
*1078 FILLER_31_93
*1079 FILLER_32_109
*1080 FILLER_32_121
*1081 FILLER_32_133
*1082 FILLER_32_139
*1083 FILLER_32_141
*1084 FILLER_32_15
*1085 FILLER_32_153
*1086 FILLER_32_165
*1087 FILLER_32_177
*1088 FILLER_32_189
*1089 FILLER_32_195
*1090 FILLER_32_197
*1091 FILLER_32_209
*1092 FILLER_32_221
*1093 FILLER_32_233
*1094 FILLER_32_245
*1095 FILLER_32_251
*1096 FILLER_32_253
*1097 FILLER_32_265
*1098 FILLER_32_27
*1099 FILLER_32_277
*1100 FILLER_32_289
*1101 FILLER_32_29
*1102 FILLER_32_297
*1103 FILLER_32_3
*1104 FILLER_32_41
*1105 FILLER_32_53
*1106 FILLER_32_65
*1107 FILLER_32_77
*1108 FILLER_32_83
*1109 FILLER_32_85
*1110 FILLER_32_97
*1111 FILLER_33_105
*1112 FILLER_33_111
*1113 FILLER_33_113
*1114 FILLER_33_125
*1115 FILLER_33_137
*1116 FILLER_33_149
*1117 FILLER_33_161
*1118 FILLER_33_167
*1119 FILLER_33_169
*1120 FILLER_33_181
*1121 FILLER_33_193
*1122 FILLER_33_20
*1123 FILLER_33_205
*1124 FILLER_33_217
*1125 FILLER_33_223
*1126 FILLER_33_225
*1127 FILLER_33_237
*1128 FILLER_33_249
*1129 FILLER_33_261
*1130 FILLER_33_273
*1131 FILLER_33_279
*1132 FILLER_33_281
*1133 FILLER_33_293
*1134 FILLER_33_3
*1135 FILLER_33_32
*1136 FILLER_33_44
*1137 FILLER_33_57
*1138 FILLER_33_69
*1139 FILLER_33_8
*1140 FILLER_33_81
*1141 FILLER_33_93
*1142 FILLER_34_109
*1143 FILLER_34_121
*1144 FILLER_34_133
*1145 FILLER_34_139
*1146 FILLER_34_141
*1147 FILLER_34_15
*1148 FILLER_34_153
*1149 FILLER_34_165
*1150 FILLER_34_177
*1151 FILLER_34_189
*1152 FILLER_34_195
*1153 FILLER_34_197
*1154 FILLER_34_209
*1155 FILLER_34_221
*1156 FILLER_34_233
*1157 FILLER_34_245
*1158 FILLER_34_251
*1159 FILLER_34_253
*1160 FILLER_34_265
*1161 FILLER_34_27
*1162 FILLER_34_277
*1163 FILLER_34_289
*1164 FILLER_34_29
*1165 FILLER_34_297
*1166 FILLER_34_3
*1167 FILLER_34_41
*1168 FILLER_34_53
*1169 FILLER_34_65
*1170 FILLER_34_77
*1171 FILLER_34_83
*1172 FILLER_34_85
*1173 FILLER_34_97
*1174 FILLER_35_105
*1175 FILLER_35_111
*1176 FILLER_35_113
*1177 FILLER_35_125
*1178 FILLER_35_137
*1179 FILLER_35_149
*1180 FILLER_35_15
*1181 FILLER_35_161
*1182 FILLER_35_167
*1183 FILLER_35_169
*1184 FILLER_35_181
*1185 FILLER_35_193
*1186 FILLER_35_205
*1187 FILLER_35_217
*1188 FILLER_35_223
*1189 FILLER_35_225
*1190 FILLER_35_237
*1191 FILLER_35_249
*1192 FILLER_35_261
*1193 FILLER_35_27
*1194 FILLER_35_273
*1195 FILLER_35_279
*1196 FILLER_35_281
*1197 FILLER_35_293
*1198 FILLER_35_3
*1199 FILLER_35_39
*1200 FILLER_35_51
*1201 FILLER_35_55
*1202 FILLER_35_57
*1203 FILLER_35_69
*1204 FILLER_35_81
*1205 FILLER_35_93
*1206 FILLER_36_109
*1207 FILLER_36_121
*1208 FILLER_36_133
*1209 FILLER_36_139
*1210 FILLER_36_141
*1211 FILLER_36_15
*1212 FILLER_36_153
*1213 FILLER_36_165
*1214 FILLER_36_177
*1215 FILLER_36_189
*1216 FILLER_36_195
*1217 FILLER_36_197
*1218 FILLER_36_209
*1219 FILLER_36_221
*1220 FILLER_36_233
*1221 FILLER_36_245
*1222 FILLER_36_251
*1223 FILLER_36_253
*1224 FILLER_36_265
*1225 FILLER_36_27
*1226 FILLER_36_277
*1227 FILLER_36_289
*1228 FILLER_36_29
*1229 FILLER_36_297
*1230 FILLER_36_3
*1231 FILLER_36_41
*1232 FILLER_36_53
*1233 FILLER_36_65
*1234 FILLER_36_77
*1235 FILLER_36_83
*1236 FILLER_36_85
*1237 FILLER_36_97
*1238 FILLER_37_105
*1239 FILLER_37_111
*1240 FILLER_37_113
*1241 FILLER_37_125
*1242 FILLER_37_137
*1243 FILLER_37_149
*1244 FILLER_37_15
*1245 FILLER_37_161
*1246 FILLER_37_167
*1247 FILLER_37_169
*1248 FILLER_37_181
*1249 FILLER_37_193
*1250 FILLER_37_205
*1251 FILLER_37_217
*1252 FILLER_37_223
*1253 FILLER_37_225
*1254 FILLER_37_237
*1255 FILLER_37_249
*1256 FILLER_37_261
*1257 FILLER_37_27
*1258 FILLER_37_273
*1259 FILLER_37_279
*1260 FILLER_37_281
*1261 FILLER_37_293
*1262 FILLER_37_3
*1263 FILLER_37_39
*1264 FILLER_37_51
*1265 FILLER_37_55
*1266 FILLER_37_57
*1267 FILLER_37_69
*1268 FILLER_37_81
*1269 FILLER_37_93
*1270 FILLER_38_109
*1271 FILLER_38_121
*1272 FILLER_38_133
*1273 FILLER_38_139
*1274 FILLER_38_141
*1275 FILLER_38_15
*1276 FILLER_38_153
*1277 FILLER_38_165
*1278 FILLER_38_177
*1279 FILLER_38_189
*1280 FILLER_38_195
*1281 FILLER_38_197
*1282 FILLER_38_209
*1283 FILLER_38_221
*1284 FILLER_38_233
*1285 FILLER_38_245
*1286 FILLER_38_251
*1287 FILLER_38_253
*1288 FILLER_38_265
*1289 FILLER_38_27
*1290 FILLER_38_277
*1291 FILLER_38_289
*1292 FILLER_38_29
*1293 FILLER_38_297
*1294 FILLER_38_3
*1295 FILLER_38_41
*1296 FILLER_38_53
*1297 FILLER_38_65
*1298 FILLER_38_77
*1299 FILLER_38_83
*1300 FILLER_38_85
*1301 FILLER_38_97
*1302 FILLER_39_105
*1303 FILLER_39_111
*1304 FILLER_39_113
*1305 FILLER_39_125
*1306 FILLER_39_137
*1307 FILLER_39_149
*1308 FILLER_39_161
*1309 FILLER_39_167
*1310 FILLER_39_169
*1311 FILLER_39_181
*1312 FILLER_39_193
*1313 FILLER_39_20
*1314 FILLER_39_205
*1315 FILLER_39_217
*1316 FILLER_39_223
*1317 FILLER_39_225
*1318 FILLER_39_237
*1319 FILLER_39_249
*1320 FILLER_39_261
*1321 FILLER_39_273
*1322 FILLER_39_279
*1323 FILLER_39_281
*1324 FILLER_39_293
*1325 FILLER_39_3
*1326 FILLER_39_32
*1327 FILLER_39_44
*1328 FILLER_39_57
*1329 FILLER_39_69
*1330 FILLER_39_8
*1331 FILLER_39_81
*1332 FILLER_39_93
*1333 FILLER_3_108
*1334 FILLER_3_113
*1335 FILLER_3_120
*1336 FILLER_3_128
*1337 FILLER_3_135
*1338 FILLER_3_14
*1339 FILLER_3_147
*1340 FILLER_3_159
*1341 FILLER_3_167
*1342 FILLER_3_169
*1343 FILLER_3_181
*1344 FILLER_3_193
*1345 FILLER_3_205
*1346 FILLER_3_217
*1347 FILLER_3_22
*1348 FILLER_3_223
*1349 FILLER_3_225
*1350 FILLER_3_237
*1351 FILLER_3_249
*1352 FILLER_3_261
*1353 FILLER_3_27
*1354 FILLER_3_273
*1355 FILLER_3_279
*1356 FILLER_3_281
*1357 FILLER_3_293
*1358 FILLER_3_3
*1359 FILLER_3_35
*1360 FILLER_3_42
*1361 FILLER_3_52
*1362 FILLER_3_57
*1363 FILLER_3_63
*1364 FILLER_3_69
*1365 FILLER_3_74
*1366 FILLER_3_82
*1367 FILLER_3_98
*1368 FILLER_40_109
*1369 FILLER_40_121
*1370 FILLER_40_133
*1371 FILLER_40_139
*1372 FILLER_40_141
*1373 FILLER_40_15
*1374 FILLER_40_153
*1375 FILLER_40_165
*1376 FILLER_40_177
*1377 FILLER_40_189
*1378 FILLER_40_195
*1379 FILLER_40_197
*1380 FILLER_40_209
*1381 FILLER_40_221
*1382 FILLER_40_233
*1383 FILLER_40_245
*1384 FILLER_40_251
*1385 FILLER_40_253
*1386 FILLER_40_265
*1387 FILLER_40_27
*1388 FILLER_40_277
*1389 FILLER_40_289
*1390 FILLER_40_29
*1391 FILLER_40_297
*1392 FILLER_40_3
*1393 FILLER_40_41
*1394 FILLER_40_53
*1395 FILLER_40_65
*1396 FILLER_40_77
*1397 FILLER_40_83
*1398 FILLER_40_85
*1399 FILLER_40_97
*1400 FILLER_41_105
*1401 FILLER_41_111
*1402 FILLER_41_113
*1403 FILLER_41_125
*1404 FILLER_41_137
*1405 FILLER_41_149
*1406 FILLER_41_15
*1407 FILLER_41_161
*1408 FILLER_41_167
*1409 FILLER_41_169
*1410 FILLER_41_181
*1411 FILLER_41_193
*1412 FILLER_41_205
*1413 FILLER_41_217
*1414 FILLER_41_223
*1415 FILLER_41_225
*1416 FILLER_41_237
*1417 FILLER_41_249
*1418 FILLER_41_261
*1419 FILLER_41_27
*1420 FILLER_41_273
*1421 FILLER_41_279
*1422 FILLER_41_281
*1423 FILLER_41_293
*1424 FILLER_41_3
*1425 FILLER_41_39
*1426 FILLER_41_51
*1427 FILLER_41_55
*1428 FILLER_41_57
*1429 FILLER_41_69
*1430 FILLER_41_81
*1431 FILLER_41_93
*1432 FILLER_42_109
*1433 FILLER_42_121
*1434 FILLER_42_133
*1435 FILLER_42_139
*1436 FILLER_42_141
*1437 FILLER_42_153
*1438 FILLER_42_165
*1439 FILLER_42_177
*1440 FILLER_42_189
*1441 FILLER_42_195
*1442 FILLER_42_197
*1443 FILLER_42_20
*1444 FILLER_42_209
*1445 FILLER_42_221
*1446 FILLER_42_233
*1447 FILLER_42_245
*1448 FILLER_42_251
*1449 FILLER_42_253
*1450 FILLER_42_265
*1451 FILLER_42_277
*1452 FILLER_42_289
*1453 FILLER_42_29
*1454 FILLER_42_297
*1455 FILLER_42_3
*1456 FILLER_42_41
*1457 FILLER_42_53
*1458 FILLER_42_65
*1459 FILLER_42_77
*1460 FILLER_42_8
*1461 FILLER_42_83
*1462 FILLER_42_85
*1463 FILLER_42_97
*1464 FILLER_43_105
*1465 FILLER_43_111
*1466 FILLER_43_113
*1467 FILLER_43_125
*1468 FILLER_43_137
*1469 FILLER_43_149
*1470 FILLER_43_15
*1471 FILLER_43_161
*1472 FILLER_43_167
*1473 FILLER_43_169
*1474 FILLER_43_181
*1475 FILLER_43_193
*1476 FILLER_43_205
*1477 FILLER_43_217
*1478 FILLER_43_223
*1479 FILLER_43_225
*1480 FILLER_43_237
*1481 FILLER_43_249
*1482 FILLER_43_261
*1483 FILLER_43_27
*1484 FILLER_43_273
*1485 FILLER_43_279
*1486 FILLER_43_281
*1487 FILLER_43_293
*1488 FILLER_43_3
*1489 FILLER_43_39
*1490 FILLER_43_51
*1491 FILLER_43_55
*1492 FILLER_43_57
*1493 FILLER_43_69
*1494 FILLER_43_81
*1495 FILLER_43_93
*1496 FILLER_44_109
*1497 FILLER_44_121
*1498 FILLER_44_133
*1499 FILLER_44_139
*1500 FILLER_44_141
*1501 FILLER_44_15
*1502 FILLER_44_153
*1503 FILLER_44_165
*1504 FILLER_44_177
*1505 FILLER_44_189
*1506 FILLER_44_195
*1507 FILLER_44_197
*1508 FILLER_44_209
*1509 FILLER_44_221
*1510 FILLER_44_233
*1511 FILLER_44_245
*1512 FILLER_44_251
*1513 FILLER_44_253
*1514 FILLER_44_265
*1515 FILLER_44_27
*1516 FILLER_44_277
*1517 FILLER_44_289
*1518 FILLER_44_29
*1519 FILLER_44_297
*1520 FILLER_44_3
*1521 FILLER_44_41
*1522 FILLER_44_53
*1523 FILLER_44_65
*1524 FILLER_44_77
*1525 FILLER_44_83
*1526 FILLER_44_85
*1527 FILLER_44_97
*1528 FILLER_45_105
*1529 FILLER_45_111
*1530 FILLER_45_113
*1531 FILLER_45_125
*1532 FILLER_45_137
*1533 FILLER_45_149
*1534 FILLER_45_15
*1535 FILLER_45_161
*1536 FILLER_45_167
*1537 FILLER_45_169
*1538 FILLER_45_181
*1539 FILLER_45_193
*1540 FILLER_45_205
*1541 FILLER_45_217
*1542 FILLER_45_223
*1543 FILLER_45_225
*1544 FILLER_45_237
*1545 FILLER_45_249
*1546 FILLER_45_261
*1547 FILLER_45_27
*1548 FILLER_45_273
*1549 FILLER_45_279
*1550 FILLER_45_281
*1551 FILLER_45_293
*1552 FILLER_45_3
*1553 FILLER_45_39
*1554 FILLER_45_51
*1555 FILLER_45_55
*1556 FILLER_45_57
*1557 FILLER_45_69
*1558 FILLER_45_81
*1559 FILLER_45_93
*1560 FILLER_46_109
*1561 FILLER_46_121
*1562 FILLER_46_133
*1563 FILLER_46_139
*1564 FILLER_46_141
*1565 FILLER_46_153
*1566 FILLER_46_165
*1567 FILLER_46_177
*1568 FILLER_46_189
*1569 FILLER_46_195
*1570 FILLER_46_197
*1571 FILLER_46_20
*1572 FILLER_46_209
*1573 FILLER_46_221
*1574 FILLER_46_233
*1575 FILLER_46_245
*1576 FILLER_46_251
*1577 FILLER_46_253
*1578 FILLER_46_265
*1579 FILLER_46_277
*1580 FILLER_46_289
*1581 FILLER_46_29
*1582 FILLER_46_297
*1583 FILLER_46_3
*1584 FILLER_46_41
*1585 FILLER_46_53
*1586 FILLER_46_65
*1587 FILLER_46_77
*1588 FILLER_46_8
*1589 FILLER_46_83
*1590 FILLER_46_85
*1591 FILLER_46_97
*1592 FILLER_47_105
*1593 FILLER_47_111
*1594 FILLER_47_113
*1595 FILLER_47_125
*1596 FILLER_47_137
*1597 FILLER_47_149
*1598 FILLER_47_15
*1599 FILLER_47_161
*1600 FILLER_47_167
*1601 FILLER_47_169
*1602 FILLER_47_181
*1603 FILLER_47_193
*1604 FILLER_47_205
*1605 FILLER_47_217
*1606 FILLER_47_223
*1607 FILLER_47_225
*1608 FILLER_47_237
*1609 FILLER_47_249
*1610 FILLER_47_261
*1611 FILLER_47_27
*1612 FILLER_47_273
*1613 FILLER_47_279
*1614 FILLER_47_281
*1615 FILLER_47_293
*1616 FILLER_47_3
*1617 FILLER_47_39
*1618 FILLER_47_51
*1619 FILLER_47_55
*1620 FILLER_47_57
*1621 FILLER_47_69
*1622 FILLER_47_81
*1623 FILLER_47_93
*1624 FILLER_48_109
*1625 FILLER_48_121
*1626 FILLER_48_133
*1627 FILLER_48_139
*1628 FILLER_48_141
*1629 FILLER_48_15
*1630 FILLER_48_153
*1631 FILLER_48_165
*1632 FILLER_48_177
*1633 FILLER_48_189
*1634 FILLER_48_195
*1635 FILLER_48_197
*1636 FILLER_48_209
*1637 FILLER_48_221
*1638 FILLER_48_233
*1639 FILLER_48_245
*1640 FILLER_48_251
*1641 FILLER_48_253
*1642 FILLER_48_265
*1643 FILLER_48_27
*1644 FILLER_48_277
*1645 FILLER_48_289
*1646 FILLER_48_29
*1647 FILLER_48_297
*1648 FILLER_48_3
*1649 FILLER_48_41
*1650 FILLER_48_53
*1651 FILLER_48_65
*1652 FILLER_48_77
*1653 FILLER_48_83
*1654 FILLER_48_85
*1655 FILLER_48_97
*1656 FILLER_49_105
*1657 FILLER_49_111
*1658 FILLER_49_113
*1659 FILLER_49_125
*1660 FILLER_49_137