*SPEF "ieee 1481-1999"
*DESIGN "MichaelBell_6bit_fifo"
*DATE "11:11:11 Fri 11 11, 1111"
*VENDOR "OpenRCX"
*PROGRAM "Parallel Extraction"
*VERSION "1.0"
*DESIGN_FLOW "NAME_SCOPE LOCAL" "PIN_CAP NONE"
*DIVIDER /
*DELIMITER :
*BUS_DELIMITER []
*T_UNIT 1 NS
*C_UNIT 1 PF
*R_UNIT 1 OHM
*L_UNIT 1 HENRY

*NAME_MAP
*1 io_in[0]
*2 io_in[1]
*3 io_in[2]
*4 io_in[3]
*5 io_in[4]
*6 io_in[5]
*7 io_in[6]
*8 io_in[7]
*9 io_out[0]
*10 io_out[1]
*11 io_out[2]
*12 io_out[3]
*13 io_out[4]
*14 io_out[5]
*15 io_out[6]
*16 io_out[7]
*19 _000_
*20 _001_
*21 _002_
*22 _003_
*23 _004_
*24 _005_
*25 _006_
*26 _007_
*27 _008_
*28 _009_
*29 _010_
*30 _011_
*31 _012_
*32 _013_
*33 _014_
*34 _015_
*35 _016_
*36 _017_
*37 _018_
*38 _019_
*39 _020_
*40 _021_
*41 _022_
*42 _023_
*43 _024_
*44 _025_
*45 _026_
*46 _027_
*47 _028_
*48 _029_
*49 _030_
*50 _031_
*51 _032_
*52 _033_
*53 _034_
*54 _035_
*55 _036_
*56 _037_
*57 _038_
*58 _039_
*59 _040_
*60 _041_
*61 _042_
*62 _043_
*63 _044_
*64 _045_
*65 _046_
*66 _047_
*67 _048_
*68 _049_
*69 _050_
*70 _051_
*71 _052_
*72 _053_
*73 _054_
*74 _055_
*75 _056_
*76 _057_
*77 _058_
*78 _059_
*79 _060_
*80 _061_
*81 _062_
*82 _063_
*83 _064_
*84 _065_
*85 _066_
*86 _067_
*87 _068_
*88 _069_
*89 _070_
*90 _071_
*91 _072_
*92 _073_
*93 _074_
*94 _075_
*95 _076_
*96 _077_
*97 _078_
*98 _079_
*99 _080_
*100 _081_
*101 _082_
*102 _083_
*103 _084_
*104 _085_
*105 _086_
*106 _087_
*107 _088_
*108 _089_
*109 _090_
*110 _091_
*111 _092_
*112 _093_
*113 _094_
*114 _095_
*115 _096_
*116 _097_
*117 _098_
*118 _099_
*119 _100_
*120 _101_
*121 _102_
*122 _103_
*123 _104_
*124 _105_
*125 _106_
*126 _107_
*127 _108_
*128 _109_
*129 _110_
*130 _111_
*131 _112_
*132 _113_
*133 _114_
*134 _115_
*135 _116_
*136 _117_
*137 _118_
*138 _119_
*139 _120_
*140 _121_
*141 _122_
*142 _123_
*143 _124_
*144 _125_
*145 _126_
*146 _127_
*147 _128_
*148 _129_
*149 _130_
*150 _131_
*151 _132_
*152 _133_
*153 _134_
*154 _135_
*155 _136_
*156 _137_
*157 _138_
*158 _139_
*159 _140_
*160 _141_
*161 _142_
*162 _143_
*163 _144_
*164 _145_
*165 _146_
*166 _147_
*167 _148_
*168 _149_
*169 _150_
*170 _151_
*171 _152_
*172 _153_
*173 _154_
*174 _155_
*175 _156_
*176 _157_
*177 _158_
*178 _159_
*179 _160_
*180 _161_
*181 _162_
*182 _163_
*183 _164_
*184 _165_
*185 _166_
*186 _167_
*187 _168_
*188 _169_
*189 _170_
*190 _171_
*191 _172_
*192 _173_
*193 _174_
*194 _175_
*195 _176_
*196 _177_
*197 _178_
*198 _179_
*199 _180_
*200 _181_
*201 _182_
*202 _183_
*203 _184_
*204 _185_
*205 _186_
*206 _187_
*207 _188_
*208 _189_
*209 _190_
*210 _191_
*211 _192_
*212 _193_
*213 _194_
*214 _195_
*215 _196_
*216 _197_
*217 _198_
*218 _199_
*219 _200_
*220 _201_
*221 _202_
*222 _203_
*223 _204_
*224 _205_
*225 _206_
*226 _207_
*227 _208_
*228 _209_
*229 _210_
*230 _211_
*231 _212_
*232 _213_
*233 _214_
*234 _215_
*235 _216_
*236 _217_
*237 _218_
*238 _219_
*239 _220_
*240 _221_
*241 _222_
*242 _223_
*243 _224_
*244 _225_
*245 _226_
*246 _227_
*247 _228_
*248 _229_
*249 _230_
*250 _231_
*251 _232_
*252 _233_
*253 _234_
*254 _235_
*255 _236_
*256 _237_
*257 _238_
*258 _239_
*259 _240_
*260 _241_
*261 _242_
*262 _243_
*263 _244_
*264 _245_
*265 _246_
*266 _247_
*267 _248_
*268 _249_
*269 _250_
*270 _251_
*271 clknet_0_io_in[0]
*272 clknet_3_0__leaf_io_in[0]
*273 clknet_3_1__leaf_io_in[0]
*274 clknet_3_2__leaf_io_in[0]
*275 clknet_3_3__leaf_io_in[0]
*276 clknet_3_4__leaf_io_in[0]
*277 clknet_3_5__leaf_io_in[0]
*278 clknet_3_6__leaf_io_in[0]
*279 clknet_3_7__leaf_io_in[0]
*280 data_in_buffer\[0\]\.A
*281 data_in_buffer\[0\]\.X
*282 data_in_buffer\[0\]\.b\[0\]
*283 data_in_buffer\[0\]\.genblk1\[0\]\.mid
*284 data_in_buffer\[0\]\.genblk1\[1\]\.mid
*285 data_in_buffer\[1\]\.A
*286 data_in_buffer\[1\]\.X
*287 data_in_buffer\[1\]\.b\[0\]
*288 data_in_buffer\[1\]\.genblk1\[0\]\.mid
*289 data_in_buffer\[1\]\.genblk1\[1\]\.mid
*290 data_in_buffer\[2\]\.A
*291 data_in_buffer\[2\]\.X
*292 data_in_buffer\[2\]\.b\[0\]
*293 data_in_buffer\[2\]\.genblk1\[0\]\.mid
*294 data_in_buffer\[2\]\.genblk1\[1\]\.mid
*295 data_in_buffer\[3\]\.A
*296 data_in_buffer\[3\]\.X
*297 data_in_buffer\[3\]\.b\[0\]
*298 data_in_buffer\[3\]\.genblk1\[0\]\.mid
*299 data_in_buffer\[3\]\.genblk1\[1\]\.mid
*300 data_in_buffer\[4\]\.A
*301 data_in_buffer\[4\]\.X
*302 data_in_buffer\[4\]\.b\[0\]
*303 data_in_buffer\[4\]\.genblk1\[0\]\.mid
*304 data_in_buffer\[4\]\.genblk1\[1\]\.mid
*305 data_in_buffer\[5\]\.A
*306 data_in_buffer\[5\]\.X
*307 data_in_buffer\[5\]\.b\[0\]
*308 data_in_buffer\[5\]\.genblk1\[0\]\.mid
*309 data_in_buffer\[5\]\.genblk1\[1\]\.mid
*310 f_fifo\.data_in\[0\]
*311 f_fifo\.data_in\[1\]
*312 f_fifo\.data_in\[2\]
*313 f_fifo\.data_in\[3\]
*314 f_fifo\.data_in\[4\]
*315 f_fifo\.data_in\[5\]
*316 f_fifo\.empty_n
*317 f_fifo\.fifo_data\[0\]\[0\]
*318 f_fifo\.fifo_data\[0\]\[1\]
*319 f_fifo\.fifo_data\[0\]\[2\]
*320 f_fifo\.fifo_data\[0\]\[3\]
*321 f_fifo\.fifo_data\[0\]\[4\]
*322 f_fifo\.fifo_data\[0\]\[5\]
*323 f_fifo\.fifo_data\[1\]\[0\]
*324 f_fifo\.fifo_data\[1\]\[1\]
*325 f_fifo\.fifo_data\[1\]\[2\]
*326 f_fifo\.fifo_data\[1\]\[3\]
*327 f_fifo\.fifo_data\[1\]\[4\]
*328 f_fifo\.fifo_data\[1\]\[5\]
*329 f_fifo\.fifo_data\[2\]\[0\]
*330 f_fifo\.fifo_data\[2\]\[1\]
*331 f_fifo\.fifo_data\[2\]\[2\]
*332 f_fifo\.fifo_data\[2\]\[3\]
*333 f_fifo\.fifo_data\[2\]\[4\]
*334 f_fifo\.fifo_data\[2\]\[5\]
*335 f_fifo\.fifo_data\[3\]\[0\]
*336 f_fifo\.fifo_data\[3\]\[1\]
*337 f_fifo\.fifo_data\[3\]\[2\]
*338 f_fifo\.fifo_data\[3\]\[3\]
*339 f_fifo\.fifo_data\[3\]\[4\]
*340 f_fifo\.fifo_data\[3\]\[5\]
*341 f_fifo\.read_addr\[0\]
*342 f_fifo\.read_addr\[1\]
*343 f_fifo\.reset_n
*344 f_fifo\.write_addr\[0\]
*345 f_fifo\.write_addr\[1\]
*346 l_fifo\.genblk1\[0\]\.entry\.empty
*347 l_fifo\.genblk1\[0\]\.entry\.input_buf\[0\]\.A
*348 l_fifo\.genblk1\[0\]\.entry\.input_buf\[0\]\.X
*349 l_fifo\.genblk1\[0\]\.entry\.input_buf\[0\]\.genblk1\[0\]\.mid
*350 l_fifo\.genblk1\[0\]\.entry\.input_buf\[1\]\.A
*351 l_fifo\.genblk1\[0\]\.entry\.input_buf\[1\]\.X
*352 l_fifo\.genblk1\[0\]\.entry\.input_buf\[1\]\.genblk1\[0\]\.mid
*353 l_fifo\.genblk1\[0\]\.entry\.input_buf\[2\]\.A
*354 l_fifo\.genblk1\[0\]\.entry\.input_buf\[2\]\.X
*355 l_fifo\.genblk1\[0\]\.entry\.input_buf\[2\]\.genblk1\[0\]\.mid
*356 l_fifo\.genblk1\[0\]\.entry\.input_buf\[3\]\.A
*357 l_fifo\.genblk1\[0\]\.entry\.input_buf\[3\]\.X
*358 l_fifo\.genblk1\[0\]\.entry\.input_buf\[3\]\.genblk1\[0\]\.mid
*359 l_fifo\.genblk1\[0\]\.entry\.input_buf\[4\]\.A
*360 l_fifo\.genblk1\[0\]\.entry\.input_buf\[4\]\.X
*361 l_fifo\.genblk1\[0\]\.entry\.input_buf\[4\]\.genblk1\[0\]\.mid
*362 l_fifo\.genblk1\[0\]\.entry\.input_buf\[5\]\.A
*363 l_fifo\.genblk1\[0\]\.entry\.input_buf\[5\]\.X
*364 l_fifo\.genblk1\[0\]\.entry\.input_buf\[5\]\.genblk1\[0\]\.mid
*365 l_fifo\.genblk1\[10\]\.entry\.empty
*366 l_fifo\.genblk1\[10\]\.entry\.input_buf\[0\]\.A
*367 l_fifo\.genblk1\[10\]\.entry\.input_buf\[0\]\.X
*368 l_fifo\.genblk1\[10\]\.entry\.input_buf\[0\]\.genblk1\[0\]\.mid
*369 l_fifo\.genblk1\[10\]\.entry\.input_buf\[1\]\.A
*370 l_fifo\.genblk1\[10\]\.entry\.input_buf\[1\]\.X
*371 l_fifo\.genblk1\[10\]\.entry\.input_buf\[1\]\.genblk1\[0\]\.mid
*372 l_fifo\.genblk1\[10\]\.entry\.input_buf\[2\]\.A
*373 l_fifo\.genblk1\[10\]\.entry\.input_buf\[2\]\.X
*374 l_fifo\.genblk1\[10\]\.entry\.input_buf\[2\]\.genblk1\[0\]\.mid
*375 l_fifo\.genblk1\[10\]\.entry\.input_buf\[3\]\.A
*376 l_fifo\.genblk1\[10\]\.entry\.input_buf\[3\]\.X
*377 l_fifo\.genblk1\[10\]\.entry\.input_buf\[3\]\.genblk1\[0\]\.mid
*378 l_fifo\.genblk1\[10\]\.entry\.input_buf\[4\]\.A
*379 l_fifo\.genblk1\[10\]\.entry\.input_buf\[4\]\.X
*380 l_fifo\.genblk1\[10\]\.entry\.input_buf\[4\]\.genblk1\[0\]\.mid
*381 l_fifo\.genblk1\[10\]\.entry\.input_buf\[5\]\.A
*382 l_fifo\.genblk1\[10\]\.entry\.input_buf\[5\]\.X
*383 l_fifo\.genblk1\[10\]\.entry\.input_buf\[5\]\.genblk1\[0\]\.mid
*384 l_fifo\.genblk1\[10\]\.entry\.next_is_empty
*385 l_fifo\.genblk1\[11\]\.entry\.empty
*386 l_fifo\.genblk1\[11\]\.entry\.input_buf\[0\]\.A
*387 l_fifo\.genblk1\[11\]\.entry\.input_buf\[0\]\.X
*388 l_fifo\.genblk1\[11\]\.entry\.input_buf\[0\]\.genblk1\[0\]\.mid
*389 l_fifo\.genblk1\[11\]\.entry\.input_buf\[1\]\.A
*390 l_fifo\.genblk1\[11\]\.entry\.input_buf\[1\]\.X
*391 l_fifo\.genblk1\[11\]\.entry\.input_buf\[1\]\.genblk1\[0\]\.mid
*392 l_fifo\.genblk1\[11\]\.entry\.input_buf\[2\]\.A
*393 l_fifo\.genblk1\[11\]\.entry\.input_buf\[2\]\.X
*394 l_fifo\.genblk1\[11\]\.entry\.input_buf\[2\]\.genblk1\[0\]\.mid
*395 l_fifo\.genblk1\[11\]\.entry\.input_buf\[3\]\.A
*396 l_fifo\.genblk1\[11\]\.entry\.input_buf\[3\]\.X
*397 l_fifo\.genblk1\[11\]\.entry\.input_buf\[3\]\.genblk1\[0\]\.mid
*398 l_fifo\.genblk1\[11\]\.entry\.input_buf\[4\]\.A
*399 l_fifo\.genblk1\[11\]\.entry\.input_buf\[4\]\.X
*400 l_fifo\.genblk1\[11\]\.entry\.input_buf\[4\]\.genblk1\[0\]\.mid
*401 l_fifo\.genblk1\[11\]\.entry\.input_buf\[5\]\.A
*402 l_fifo\.genblk1\[11\]\.entry\.input_buf\[5\]\.X
*403 l_fifo\.genblk1\[11\]\.entry\.input_buf\[5\]\.genblk1\[0\]\.mid
*404 l_fifo\.genblk1\[12\]\.entry\.empty
*405 l_fifo\.genblk1\[12\]\.entry\.input_buf\[0\]\.A
*406 l_fifo\.genblk1\[12\]\.entry\.input_buf\[0\]\.X
*407 l_fifo\.genblk1\[12\]\.entry\.input_buf\[0\]\.genblk1\[0\]\.mid
*408 l_fifo\.genblk1\[12\]\.entry\.input_buf\[1\]\.A
*409 l_fifo\.genblk1\[12\]\.entry\.input_buf\[1\]\.X
*410 l_fifo\.genblk1\[12\]\.entry\.input_buf\[1\]\.genblk1\[0\]\.mid
*411 l_fifo\.genblk1\[12\]\.entry\.input_buf\[2\]\.A
*412 l_fifo\.genblk1\[12\]\.entry\.input_buf\[2\]\.X
*413 l_fifo\.genblk1\[12\]\.entry\.input_buf\[2\]\.genblk1\[0\]\.mid
*414 l_fifo\.genblk1\[12\]\.entry\.input_buf\[3\]\.A
*415 l_fifo\.genblk1\[12\]\.entry\.input_buf\[3\]\.X
*416 l_fifo\.genblk1\[12\]\.entry\.input_buf\[3\]\.genblk1\[0\]\.mid
*417 l_fifo\.genblk1\[12\]\.entry\.input_buf\[4\]\.A
*418 l_fifo\.genblk1\[12\]\.entry\.input_buf\[4\]\.X
*419 l_fifo\.genblk1\[12\]\.entry\.input_buf\[4\]\.genblk1\[0\]\.mid
*420 l_fifo\.genblk1\[12\]\.entry\.input_buf\[5\]\.A
*421 l_fifo\.genblk1\[12\]\.entry\.input_buf\[5\]\.X
*422 l_fifo\.genblk1\[12\]\.entry\.input_buf\[5\]\.genblk1\[0\]\.mid
*423 l_fifo\.genblk1\[13\]\.entry\.empty
*424 l_fifo\.genblk1\[13\]\.entry\.input_buf\[0\]\.A
*425 l_fifo\.genblk1\[13\]\.entry\.input_buf\[0\]\.X
*426 l_fifo\.genblk1\[13\]\.entry\.input_buf\[0\]\.genblk1\[0\]\.mid
*427 l_fifo\.genblk1\[13\]\.entry\.input_buf\[1\]\.A
*428 l_fifo\.genblk1\[13\]\.entry\.input_buf\[1\]\.X
*429 l_fifo\.genblk1\[13\]\.entry\.input_buf\[1\]\.genblk1\[0\]\.mid
*430 l_fifo\.genblk1\[13\]\.entry\.input_buf\[2\]\.A
*431 l_fifo\.genblk1\[13\]\.entry\.input_buf\[2\]\.X
*432 l_fifo\.genblk1\[13\]\.entry\.input_buf\[2\]\.genblk1\[0\]\.mid
*433 l_fifo\.genblk1\[13\]\.entry\.input_buf\[3\]\.A
*434 l_fifo\.genblk1\[13\]\.entry\.input_buf\[3\]\.X
*435 l_fifo\.genblk1\[13\]\.entry\.input_buf\[3\]\.genblk1\[0\]\.mid
*436 l_fifo\.genblk1\[13\]\.entry\.input_buf\[4\]\.A
*437 l_fifo\.genblk1\[13\]\.entry\.input_buf\[4\]\.X
*438 l_fifo\.genblk1\[13\]\.entry\.input_buf\[4\]\.genblk1\[0\]\.mid
*439 l_fifo\.genblk1\[13\]\.entry\.input_buf\[5\]\.A
*440 l_fifo\.genblk1\[13\]\.entry\.input_buf\[5\]\.X
*441 l_fifo\.genblk1\[13\]\.entry\.input_buf\[5\]\.genblk1\[0\]\.mid
*442 l_fifo\.genblk1\[14\]\.entry\.empty
*443 l_fifo\.genblk1\[14\]\.entry\.input_buf\[0\]\.A
*444 l_fifo\.genblk1\[14\]\.entry\.input_buf\[0\]\.X
*445 l_fifo\.genblk1\[14\]\.entry\.input_buf\[0\]\.genblk1\[0\]\.mid
*446 l_fifo\.genblk1\[14\]\.entry\.input_buf\[1\]\.A
*447 l_fifo\.genblk1\[14\]\.entry\.input_buf\[1\]\.X
*448 l_fifo\.genblk1\[14\]\.entry\.input_buf\[1\]\.genblk1\[0\]\.mid
*449 l_fifo\.genblk1\[14\]\.entry\.input_buf\[2\]\.A
*450 l_fifo\.genblk1\[14\]\.entry\.input_buf\[2\]\.X
*451 l_fifo\.genblk1\[14\]\.entry\.input_buf\[2\]\.genblk1\[0\]\.mid
*452 l_fifo\.genblk1\[14\]\.entry\.input_buf\[3\]\.A
*453 l_fifo\.genblk1\[14\]\.entry\.input_buf\[3\]\.X
*454 l_fifo\.genblk1\[14\]\.entry\.input_buf\[3\]\.genblk1\[0\]\.mid
*455 l_fifo\.genblk1\[14\]\.entry\.input_buf\[4\]\.A
*456 l_fifo\.genblk1\[14\]\.entry\.input_buf\[4\]\.X
*457 l_fifo\.genblk1\[14\]\.entry\.input_buf\[4\]\.genblk1\[0\]\.mid
*458 l_fifo\.genblk1\[14\]\.entry\.input_buf\[5\]\.A
*459 l_fifo\.genblk1\[14\]\.entry\.input_buf\[5\]\.X
*460 l_fifo\.genblk1\[14\]\.entry\.input_buf\[5\]\.genblk1\[0\]\.mid
*461 l_fifo\.genblk1\[15\]\.entry\.empty
*462 l_fifo\.genblk1\[15\]\.entry\.input_buf\[0\]\.A
*463 l_fifo\.genblk1\[15\]\.entry\.input_buf\[0\]\.X
*464 l_fifo\.genblk1\[15\]\.entry\.input_buf\[0\]\.genblk1\[0\]\.mid
*465 l_fifo\.genblk1\[15\]\.entry\.input_buf\[1\]\.A
*466 l_fifo\.genblk1\[15\]\.entry\.input_buf\[1\]\.X
*467 l_fifo\.genblk1\[15\]\.entry\.input_buf\[1\]\.genblk1\[0\]\.mid
*468 l_fifo\.genblk1\[15\]\.entry\.input_buf\[2\]\.A
*469 l_fifo\.genblk1\[15\]\.entry\.input_buf\[2\]\.X
*470 l_fifo\.genblk1\[15\]\.entry\.input_buf\[2\]\.genblk1\[0\]\.mid
*471 l_fifo\.genblk1\[15\]\.entry\.input_buf\[3\]\.A
*472 l_fifo\.genblk1\[15\]\.entry\.input_buf\[3\]\.X
*473 l_fifo\.genblk1\[15\]\.entry\.input_buf\[3\]\.genblk1\[0\]\.mid
*474 l_fifo\.genblk1\[15\]\.entry\.input_buf\[4\]\.A
*475 l_fifo\.genblk1\[15\]\.entry\.input_buf\[4\]\.X
*476 l_fifo\.genblk1\[15\]\.entry\.input_buf\[4\]\.genblk1\[0\]\.mid
*477 l_fifo\.genblk1\[15\]\.entry\.input_buf\[5\]\.A
*478 l_fifo\.genblk1\[15\]\.entry\.input_buf\[5\]\.X
*479 l_fifo\.genblk1\[15\]\.entry\.input_buf\[5\]\.genblk1\[0\]\.mid
*480 l_fifo\.genblk1\[16\]\.entry\.empty
*481 l_fifo\.genblk1\[16\]\.entry\.input_buf\[0\]\.A
*482 l_fifo\.genblk1\[16\]\.entry\.input_buf\[0\]\.X
*483 l_fifo\.genblk1\[16\]\.entry\.input_buf\[0\]\.genblk1\[0\]\.mid
*484 l_fifo\.genblk1\[16\]\.entry\.input_buf\[1\]\.A
*485 l_fifo\.genblk1\[16\]\.entry\.input_buf\[1\]\.X
*486 l_fifo\.genblk1\[16\]\.entry\.input_buf\[1\]\.genblk1\[0\]\.mid
*487 l_fifo\.genblk1\[16\]\.entry\.input_buf\[2\]\.A
*488 l_fifo\.genblk1\[16\]\.entry\.input_buf\[2\]\.X
*489 l_fifo\.genblk1\[16\]\.entry\.input_buf\[2\]\.genblk1\[0\]\.mid
*490 l_fifo\.genblk1\[16\]\.entry\.input_buf\[3\]\.A
*491 l_fifo\.genblk1\[16\]\.entry\.input_buf\[3\]\.X
*492 l_fifo\.genblk1\[16\]\.entry\.input_buf\[3\]\.genblk1\[0\]\.mid
*493 l_fifo\.genblk1\[16\]\.entry\.input_buf\[4\]\.A
*494 l_fifo\.genblk1\[16\]\.entry\.input_buf\[4\]\.X
*495 l_fifo\.genblk1\[16\]\.entry\.input_buf\[4\]\.genblk1\[0\]\.mid
*496 l_fifo\.genblk1\[16\]\.entry\.input_buf\[5\]\.A
*497 l_fifo\.genblk1\[16\]\.entry\.input_buf\[5\]\.X
*498 l_fifo\.genblk1\[16\]\.entry\.input_buf\[5\]\.genblk1\[0\]\.mid
*499 l_fifo\.genblk1\[17\]\.entry\.empty
*500 l_fifo\.genblk1\[17\]\.entry\.input_buf\[0\]\.A
*501 l_fifo\.genblk1\[17\]\.entry\.input_buf\[0\]\.X
*502 l_fifo\.genblk1\[17\]\.entry\.input_buf\[0\]\.genblk1\[0\]\.mid
*503 l_fifo\.genblk1\[17\]\.entry\.input_buf\[1\]\.A
*504 l_fifo\.genblk1\[17\]\.entry\.input_buf\[1\]\.X
*505 l_fifo\.genblk1\[17\]\.entry\.input_buf\[1\]\.genblk1\[0\]\.mid
*506 l_fifo\.genblk1\[17\]\.entry\.input_buf\[2\]\.A
*507 l_fifo\.genblk1\[17\]\.entry\.input_buf\[2\]\.X
*508 l_fifo\.genblk1\[17\]\.entry\.input_buf\[2\]\.genblk1\[0\]\.mid
*509 l_fifo\.genblk1\[17\]\.entry\.input_buf\[3\]\.A
*510 l_fifo\.genblk1\[17\]\.entry\.input_buf\[3\]\.X
*511 l_fifo\.genblk1\[17\]\.entry\.input_buf\[3\]\.genblk1\[0\]\.mid
*512 l_fifo\.genblk1\[17\]\.entry\.input_buf\[4\]\.A
*513 l_fifo\.genblk1\[17\]\.entry\.input_buf\[4\]\.X
*514 l_fifo\.genblk1\[17\]\.entry\.input_buf\[4\]\.genblk1\[0\]\.mid
*515 l_fifo\.genblk1\[17\]\.entry\.input_buf\[5\]\.A
*516 l_fifo\.genblk1\[17\]\.entry\.input_buf\[5\]\.X
*517 l_fifo\.genblk1\[17\]\.entry\.input_buf\[5\]\.genblk1\[0\]\.mid
*518 l_fifo\.genblk1\[18\]\.entry\.empty
*519 l_fifo\.genblk1\[18\]\.entry\.input_buf\[0\]\.A
*520 l_fifo\.genblk1\[18\]\.entry\.input_buf\[0\]\.X
*521 l_fifo\.genblk1\[18\]\.entry\.input_buf\[0\]\.genblk1\[0\]\.mid
*522 l_fifo\.genblk1\[18\]\.entry\.input_buf\[1\]\.A
*523 l_fifo\.genblk1\[18\]\.entry\.input_buf\[1\]\.X
*524 l_fifo\.genblk1\[18\]\.entry\.input_buf\[1\]\.genblk1\[0\]\.mid
*525 l_fifo\.genblk1\[18\]\.entry\.input_buf\[2\]\.A
*526 l_fifo\.genblk1\[18\]\.entry\.input_buf\[2\]\.X
*527 l_fifo\.genblk1\[18\]\.entry\.input_buf\[2\]\.genblk1\[0\]\.mid
*528 l_fifo\.genblk1\[18\]\.entry\.input_buf\[3\]\.A
*529 l_fifo\.genblk1\[18\]\.entry\.input_buf\[3\]\.X
*530 l_fifo\.genblk1\[18\]\.entry\.input_buf\[3\]\.genblk1\[0\]\.mid
*531 l_fifo\.genblk1\[18\]\.entry\.input_buf\[4\]\.A
*532 l_fifo\.genblk1\[18\]\.entry\.input_buf\[4\]\.X
*533 l_fifo\.genblk1\[18\]\.entry\.input_buf\[4\]\.genblk1\[0\]\.mid
*534 l_fifo\.genblk1\[18\]\.entry\.input_buf\[5\]\.A
*535 l_fifo\.genblk1\[18\]\.entry\.input_buf\[5\]\.X
*536 l_fifo\.genblk1\[18\]\.entry\.input_buf\[5\]\.genblk1\[0\]\.mid
*537 l_fifo\.genblk1\[19\]\.entry\.empty
*538 l_fifo\.genblk1\[19\]\.entry\.input_buf\[0\]\.A
*539 l_fifo\.genblk1\[19\]\.entry\.input_buf\[0\]\.X
*540 l_fifo\.genblk1\[19\]\.entry\.input_buf\[0\]\.genblk1\[0\]\.mid
*541 l_fifo\.genblk1\[19\]\.entry\.input_buf\[1\]\.A
*542 l_fifo\.genblk1\[19\]\.entry\.input_buf\[1\]\.X
*543 l_fifo\.genblk1\[19\]\.entry\.input_buf\[1\]\.genblk1\[0\]\.mid
*544 l_fifo\.genblk1\[19\]\.entry\.input_buf\[2\]\.A
*545 l_fifo\.genblk1\[19\]\.entry\.input_buf\[2\]\.X
*546 l_fifo\.genblk1\[19\]\.entry\.input_buf\[2\]\.genblk1\[0\]\.mid
*547 l_fifo\.genblk1\[19\]\.entry\.input_buf\[3\]\.A
*548 l_fifo\.genblk1\[19\]\.entry\.input_buf\[3\]\.X
*549 l_fifo\.genblk1\[19\]\.entry\.input_buf\[3\]\.genblk1\[0\]\.mid
*550 l_fifo\.genblk1\[19\]\.entry\.input_buf\[4\]\.A
*551 l_fifo\.genblk1\[19\]\.entry\.input_buf\[4\]\.X
*552 l_fifo\.genblk1\[19\]\.entry\.input_buf\[4\]\.genblk1\[0\]\.mid
*553 l_fifo\.genblk1\[19\]\.entry\.input_buf\[5\]\.A
*554 l_fifo\.genblk1\[19\]\.entry\.input_buf\[5\]\.X
*555 l_fifo\.genblk1\[19\]\.entry\.input_buf\[5\]\.genblk1\[0\]\.mid
*556 l_fifo\.genblk1\[1\]\.entry\.empty
*557 l_fifo\.genblk1\[1\]\.entry\.input_buf\[0\]\.A
*558 l_fifo\.genblk1\[1\]\.entry\.input_buf\[0\]\.X
*559 l_fifo\.genblk1\[1\]\.entry\.input_buf\[0\]\.genblk1\[0\]\.mid
*560 l_fifo\.genblk1\[1\]\.entry\.input_buf\[1\]\.A
*561 l_fifo\.genblk1\[1\]\.entry\.input_buf\[1\]\.X
*562 l_fifo\.genblk1\[1\]\.entry\.input_buf\[1\]\.genblk1\[0\]\.mid
*563 l_fifo\.genblk1\[1\]\.entry\.input_buf\[2\]\.A
*564 l_fifo\.genblk1\[1\]\.entry\.input_buf\[2\]\.X
*565 l_fifo\.genblk1\[1\]\.entry\.input_buf\[2\]\.genblk1\[0\]\.mid
*566 l_fifo\.genblk1\[1\]\.entry\.input_buf\[3\]\.A
*567 l_fifo\.genblk1\[1\]\.entry\.input_buf\[3\]\.X
*568 l_fifo\.genblk1\[1\]\.entry\.input_buf\[3\]\.genblk1\[0\]\.mid
*569 l_fifo\.genblk1\[1\]\.entry\.input_buf\[4\]\.A
*570 l_fifo\.genblk1\[1\]\.entry\.input_buf\[4\]\.X
*571 l_fifo\.genblk1\[1\]\.entry\.input_buf\[4\]\.genblk1\[0\]\.mid
*572 l_fifo\.genblk1\[1\]\.entry\.input_buf\[5\]\.A
*573 l_fifo\.genblk1\[1\]\.entry\.input_buf\[5\]\.X
*574 l_fifo\.genblk1\[1\]\.entry\.input_buf\[5\]\.genblk1\[0\]\.mid
*575 l_fifo\.genblk1\[20\]\.entry\.empty
*576 l_fifo\.genblk1\[20\]\.entry\.input_buf\[0\]\.A
*577 l_fifo\.genblk1\[20\]\.entry\.input_buf\[0\]\.X
*578 l_fifo\.genblk1\[20\]\.entry\.input_buf\[0\]\.genblk1\[0\]\.mid
*579 l_fifo\.genblk1\[20\]\.entry\.input_buf\[1\]\.A
*580 l_fifo\.genblk1\[20\]\.entry\.input_buf\[1\]\.X
*581 l_fifo\.genblk1\[20\]\.entry\.input_buf\[1\]\.genblk1\[0\]\.mid
*582 l_fifo\.genblk1\[20\]\.entry\.input_buf\[2\]\.A
*583 l_fifo\.genblk1\[20\]\.entry\.input_buf\[2\]\.X
*584 l_fifo\.genblk1\[20\]\.entry\.input_buf\[2\]\.genblk1\[0\]\.mid
*585 l_fifo\.genblk1\[20\]\.entry\.input_buf\[3\]\.A
*586 l_fifo\.genblk1\[20\]\.entry\.input_buf\[3\]\.X
*587 l_fifo\.genblk1\[20\]\.entry\.input_buf\[3\]\.genblk1\[0\]\.mid
*588 l_fifo\.genblk1\[20\]\.entry\.input_buf\[4\]\.A
*589 l_fifo\.genblk1\[20\]\.entry\.input_buf\[4\]\.X
*590 l_fifo\.genblk1\[20\]\.entry\.input_buf\[4\]\.genblk1\[0\]\.mid
*591 l_fifo\.genblk1\[20\]\.entry\.input_buf\[5\]\.A
*592 l_fifo\.genblk1\[20\]\.entry\.input_buf\[5\]\.X
*593 l_fifo\.genblk1\[20\]\.entry\.input_buf\[5\]\.genblk1\[0\]\.mid
*594 l_fifo\.genblk1\[21\]\.entry\.empty
*595 l_fifo\.genblk1\[21\]\.entry\.input_buf\[0\]\.A
*596 l_fifo\.genblk1\[21\]\.entry\.input_buf\[0\]\.X
*597 l_fifo\.genblk1\[21\]\.entry\.input_buf\[0\]\.genblk1\[0\]\.mid
*598 l_fifo\.genblk1\[21\]\.entry\.input_buf\[1\]\.A
*599 l_fifo\.genblk1\[21\]\.entry\.input_buf\[1\]\.X
*600 l_fifo\.genblk1\[21\]\.entry\.input_buf\[1\]\.genblk1\[0\]\.mid
*601 l_fifo\.genblk1\[21\]\.entry\.input_buf\[2\]\.A
*602 l_fifo\.genblk1\[21\]\.entry\.input_buf\[2\]\.X
*603 l_fifo\.genblk1\[21\]\.entry\.input_buf\[2\]\.genblk1\[0\]\.mid
*604 l_fifo\.genblk1\[21\]\.entry\.input_buf\[3\]\.A
*605 l_fifo\.genblk1\[21\]\.entry\.input_buf\[3\]\.X
*606 l_fifo\.genblk1\[21\]\.entry\.input_buf\[3\]\.genblk1\[0\]\.mid
*607 l_fifo\.genblk1\[21\]\.entry\.input_buf\[4\]\.A
*608 l_fifo\.genblk1\[21\]\.entry\.input_buf\[4\]\.X
*609 l_fifo\.genblk1\[21\]\.entry\.input_buf\[4\]\.genblk1\[0\]\.mid
*610 l_fifo\.genblk1\[21\]\.entry\.input_buf\[5\]\.A
*611 l_fifo\.genblk1\[21\]\.entry\.input_buf\[5\]\.X
*612 l_fifo\.genblk1\[21\]\.entry\.input_buf\[5\]\.genblk1\[0\]\.mid
*613 l_fifo\.genblk1\[22\]\.entry\.empty
*614 l_fifo\.genblk1\[22\]\.entry\.input_buf\[0\]\.A
*615 l_fifo\.genblk1\[22\]\.entry\.input_buf\[0\]\.X
*616 l_fifo\.genblk1\[22\]\.entry\.input_buf\[0\]\.genblk1\[0\]\.mid
*617 l_fifo\.genblk1\[22\]\.entry\.input_buf\[1\]\.A
*618 l_fifo\.genblk1\[22\]\.entry\.input_buf\[1\]\.X
*619 l_fifo\.genblk1\[22\]\.entry\.input_buf\[1\]\.genblk1\[0\]\.mid
*620 l_fifo\.genblk1\[22\]\.entry\.input_buf\[2\]\.A
*621 l_fifo\.genblk1\[22\]\.entry\.input_buf\[2\]\.X
*622 l_fifo\.genblk1\[22\]\.entry\.input_buf\[2\]\.genblk1\[0\]\.mid
*623 l_fifo\.genblk1\[22\]\.entry\.input_buf\[3\]\.A
*624 l_fifo\.genblk1\[22\]\.entry\.input_buf\[3\]\.X
*625 l_fifo\.genblk1\[22\]\.entry\.input_buf\[3\]\.genblk1\[0\]\.mid
*626 l_fifo\.genblk1\[22\]\.entry\.input_buf\[4\]\.A
*627 l_fifo\.genblk1\[22\]\.entry\.input_buf\[4\]\.X
*628 l_fifo\.genblk1\[22\]\.entry\.input_buf\[4\]\.genblk1\[0\]\.mid
*629 l_fifo\.genblk1\[22\]\.entry\.input_buf\[5\]\.A
*630 l_fifo\.genblk1\[22\]\.entry\.input_buf\[5\]\.X
*631 l_fifo\.genblk1\[22\]\.entry\.input_buf\[5\]\.genblk1\[0\]\.mid
*632 l_fifo\.genblk1\[23\]\.entry\.empty
*633 l_fifo\.genblk1\[23\]\.entry\.input_buf\[0\]\.A
*634 l_fifo\.genblk1\[23\]\.entry\.input_buf\[0\]\.X
*635 l_fifo\.genblk1\[23\]\.entry\.input_buf\[0\]\.genblk1\[0\]\.mid
*636 l_fifo\.genblk1\[23\]\.entry\.input_buf\[1\]\.A
*637 l_fifo\.genblk1\[23\]\.entry\.input_buf\[1\]\.X
*638 l_fifo\.genblk1\[23\]\.entry\.input_buf\[1\]\.genblk1\[0\]\.mid
*639 l_fifo\.genblk1\[23\]\.entry\.input_buf\[2\]\.A
*640 l_fifo\.genblk1\[23\]\.entry\.input_buf\[2\]\.X
*641 l_fifo\.genblk1\[23\]\.entry\.input_buf\[2\]\.genblk1\[0\]\.mid
*642 l_fifo\.genblk1\[23\]\.entry\.input_buf\[3\]\.A
*643 l_fifo\.genblk1\[23\]\.entry\.input_buf\[3\]\.X
*644 l_fifo\.genblk1\[23\]\.entry\.input_buf\[3\]\.genblk1\[0\]\.mid
*645 l_fifo\.genblk1\[23\]\.entry\.input_buf\[4\]\.A
*646 l_fifo\.genblk1\[23\]\.entry\.input_buf\[4\]\.X
*647 l_fifo\.genblk1\[23\]\.entry\.input_buf\[4\]\.genblk1\[0\]\.mid
*648 l_fifo\.genblk1\[23\]\.entry\.input_buf\[5\]\.A
*649 l_fifo\.genblk1\[23\]\.entry\.input_buf\[5\]\.X
*650 l_fifo\.genblk1\[23\]\.entry\.input_buf\[5\]\.genblk1\[0\]\.mid
*651 l_fifo\.genblk1\[24\]\.entry\.empty
*652 l_fifo\.genblk1\[24\]\.entry\.input_buf\[0\]\.A
*653 l_fifo\.genblk1\[24\]\.entry\.input_buf\[0\]\.X
*654 l_fifo\.genblk1\[24\]\.entry\.input_buf\[0\]\.genblk1\[0\]\.mid
*655 l_fifo\.genblk1\[24\]\.entry\.input_buf\[1\]\.A
*656 l_fifo\.genblk1\[24\]\.entry\.input_buf\[1\]\.X
*657 l_fifo\.genblk1\[24\]\.entry\.input_buf\[1\]\.genblk1\[0\]\.mid
*658 l_fifo\.genblk1\[24\]\.entry\.input_buf\[2\]\.A
*659 l_fifo\.genblk1\[24\]\.entry\.input_buf\[2\]\.X
*660 l_fifo\.genblk1\[24\]\.entry\.input_buf\[2\]\.genblk1\[0\]\.mid
*661 l_fifo\.genblk1\[24\]\.entry\.input_buf\[3\]\.A
*662 l_fifo\.genblk1\[24\]\.entry\.input_buf\[3\]\.X
*663 l_fifo\.genblk1\[24\]\.entry\.input_buf\[3\]\.genblk1\[0\]\.mid
*664 l_fifo\.genblk1\[24\]\.entry\.input_buf\[4\]\.A
*665 l_fifo\.genblk1\[24\]\.entry\.input_buf\[4\]\.X
*666 l_fifo\.genblk1\[24\]\.entry\.input_buf\[4\]\.genblk1\[0\]\.mid
*667 l_fifo\.genblk1\[24\]\.entry\.input_buf\[5\]\.A
*668 l_fifo\.genblk1\[24\]\.entry\.input_buf\[5\]\.X
*669 l_fifo\.genblk1\[24\]\.entry\.input_buf\[5\]\.genblk1\[0\]\.mid
*670 l_fifo\.genblk1\[25\]\.entry\.empty
*671 l_fifo\.genblk1\[25\]\.entry\.input_buf\[0\]\.A
*672 l_fifo\.genblk1\[25\]\.entry\.input_buf\[0\]\.X
*673 l_fifo\.genblk1\[25\]\.entry\.input_buf\[0\]\.genblk1\[0\]\.mid
*674 l_fifo\.genblk1\[25\]\.entry\.input_buf\[1\]\.A
*675 l_fifo\.genblk1\[25\]\.entry\.input_buf\[1\]\.X
*676 l_fifo\.genblk1\[25\]\.entry\.input_buf\[1\]\.genblk1\[0\]\.mid
*677 l_fifo\.genblk1\[25\]\.entry\.input_buf\[2\]\.A
*678 l_fifo\.genblk1\[25\]\.entry\.input_buf\[2\]\.X
*679 l_fifo\.genblk1\[25\]\.entry\.input_buf\[2\]\.genblk1\[0\]\.mid
*680 l_fifo\.genblk1\[25\]\.entry\.input_buf\[3\]\.A
*681 l_fifo\.genblk1\[25\]\.entry\.input_buf\[3\]\.X
*682 l_fifo\.genblk1\[25\]\.entry\.input_buf\[3\]\.genblk1\[0\]\.mid
*683 l_fifo\.genblk1\[25\]\.entry\.input_buf\[4\]\.A
*684 l_fifo\.genblk1\[25\]\.entry\.input_buf\[4\]\.X
*685 l_fifo\.genblk1\[25\]\.entry\.input_buf\[4\]\.genblk1\[0\]\.mid
*686 l_fifo\.genblk1\[25\]\.entry\.input_buf\[5\]\.A
*687 l_fifo\.genblk1\[25\]\.entry\.input_buf\[5\]\.X
*688 l_fifo\.genblk1\[25\]\.entry\.input_buf\[5\]\.genblk1\[0\]\.mid
*689 l_fifo\.genblk1\[26\]\.entry\.empty
*690 l_fifo\.genblk1\[26\]\.entry\.input_buf\[0\]\.A
*691 l_fifo\.genblk1\[26\]\.entry\.input_buf\[0\]\.X
*692 l_fifo\.genblk1\[26\]\.entry\.input_buf\[0\]\.genblk1\[0\]\.mid
*693 l_fifo\.genblk1\[26\]\.entry\.input_buf\[1\]\.A
*694 l_fifo\.genblk1\[26\]\.entry\.input_buf\[1\]\.X
*695 l_fifo\.genblk1\[26\]\.entry\.input_buf\[1\]\.genblk1\[0\]\.mid
*696 l_fifo\.genblk1\[26\]\.entry\.input_buf\[2\]\.A
*697 l_fifo\.genblk1\[26\]\.entry\.input_buf\[2\]\.X
*698 l_fifo\.genblk1\[26\]\.entry\.input_buf\[2\]\.genblk1\[0\]\.mid
*699 l_fifo\.genblk1\[26\]\.entry\.input_buf\[3\]\.A
*700 l_fifo\.genblk1\[26\]\.entry\.input_buf\[3\]\.X
*701 l_fifo\.genblk1\[26\]\.entry\.input_buf\[3\]\.genblk1\[0\]\.mid
*702 l_fifo\.genblk1\[26\]\.entry\.input_buf\[4\]\.A
*703 l_fifo\.genblk1\[26\]\.entry\.input_buf\[4\]\.X
*704 l_fifo\.genblk1\[26\]\.entry\.input_buf\[4\]\.genblk1\[0\]\.mid
*705 l_fifo\.genblk1\[26\]\.entry\.input_buf\[5\]\.A
*706 l_fifo\.genblk1\[26\]\.entry\.input_buf\[5\]\.X
*707 l_fifo\.genblk1\[26\]\.entry\.input_buf\[5\]\.genblk1\[0\]\.mid
*708 l_fifo\.genblk1\[27\]\.entry\.empty
*709 l_fifo\.genblk1\[27\]\.entry\.input_buf\[0\]\.A
*710 l_fifo\.genblk1\[27\]\.entry\.input_buf\[0\]\.X
*711 l_fifo\.genblk1\[27\]\.entry\.input_buf\[0\]\.genblk1\[0\]\.mid
*712 l_fifo\.genblk1\[27\]\.entry\.input_buf\[1\]\.A
*713 l_fifo\.genblk1\[27\]\.entry\.input_buf\[1\]\.X
*714 l_fifo\.genblk1\[27\]\.entry\.input_buf\[1\]\.genblk1\[0\]\.mid
*715 l_fifo\.genblk1\[27\]\.entry\.input_buf\[2\]\.A
*716 l_fifo\.genblk1\[27\]\.entry\.input_buf\[2\]\.X
*717 l_fifo\.genblk1\[27\]\.entry\.input_buf\[2\]\.genblk1\[0\]\.mid
*718 l_fifo\.genblk1\[27\]\.entry\.input_buf\[3\]\.A
*719 l_fifo\.genblk1\[27\]\.entry\.input_buf\[3\]\.X
*720 l_fifo\.genblk1\[27\]\.entry\.input_buf\[3\]\.genblk1\[0\]\.mid
*721 l_fifo\.genblk1\[27\]\.entry\.input_buf\[4\]\.A
*722 l_fifo\.genblk1\[27\]\.entry\.input_buf\[4\]\.X
*723 l_fifo\.genblk1\[27\]\.entry\.input_buf\[4\]\.genblk1\[0\]\.mid
*724 l_fifo\.genblk1\[27\]\.entry\.input_buf\[5\]\.A
*725 l_fifo\.genblk1\[27\]\.entry\.input_buf\[5\]\.X
*726 l_fifo\.genblk1\[27\]\.entry\.input_buf\[5\]\.genblk1\[0\]\.mid
*727 l_fifo\.genblk1\[28\]\.entry\.empty
*728 l_fifo\.genblk1\[28\]\.entry\.input_buf\[0\]\.A
*729 l_fifo\.genblk1\[28\]\.entry\.input_buf\[0\]\.X
*730 l_fifo\.genblk1\[28\]\.entry\.input_buf\[0\]\.genblk1\[0\]\.mid
*731 l_fifo\.genblk1\[28\]\.entry\.input_buf\[1\]\.A
*732 l_fifo\.genblk1\[28\]\.entry\.input_buf\[1\]\.X
*733 l_fifo\.genblk1\[28\]\.entry\.input_buf\[1\]\.genblk1\[0\]\.mid
*734 l_fifo\.genblk1\[28\]\.entry\.input_buf\[2\]\.A
*735 l_fifo\.genblk1\[28\]\.entry\.input_buf\[2\]\.X
*736 l_fifo\.genblk1\[28\]\.entry\.input_buf\[2\]\.genblk1\[0\]\.mid
*737 l_fifo\.genblk1\[28\]\.entry\.input_buf\[3\]\.A
*738 l_fifo\.genblk1\[28\]\.entry\.input_buf\[3\]\.X
*739 l_fifo\.genblk1\[28\]\.entry\.input_buf\[3\]\.genblk1\[0\]\.mid
*740 l_fifo\.genblk1\[28\]\.entry\.input_buf\[4\]\.A
*741 l_fifo\.genblk1\[28\]\.entry\.input_buf\[4\]\.X
*742 l_fifo\.genblk1\[28\]\.entry\.input_buf\[4\]\.genblk1\[0\]\.mid
*743 l_fifo\.genblk1\[28\]\.entry\.input_buf\[5\]\.A
*744 l_fifo\.genblk1\[28\]\.entry\.input_buf\[5\]\.X
*745 l_fifo\.genblk1\[28\]\.entry\.input_buf\[5\]\.genblk1\[0\]\.mid
*746 l_fifo\.genblk1\[29\]\.entry\.empty
*747 l_fifo\.genblk1\[29\]\.entry\.input_buf\[0\]\.A
*748 l_fifo\.genblk1\[29\]\.entry\.input_buf\[0\]\.X
*749 l_fifo\.genblk1\[29\]\.entry\.input_buf\[0\]\.genblk1\[0\]\.mid
*750 l_fifo\.genblk1\[29\]\.entry\.input_buf\[1\]\.A
*751 l_fifo\.genblk1\[29\]\.entry\.input_buf\[1\]\.X
*752 l_fifo\.genblk1\[29\]\.entry\.input_buf\[1\]\.genblk1\[0\]\.mid
*753 l_fifo\.genblk1\[29\]\.entry\.input_buf\[2\]\.A
*754 l_fifo\.genblk1\[29\]\.entry\.input_buf\[2\]\.X
*755 l_fifo\.genblk1\[29\]\.entry\.input_buf\[2\]\.genblk1\[0\]\.mid
*756 l_fifo\.genblk1\[29\]\.entry\.input_buf\[3\]\.A
*757 l_fifo\.genblk1\[29\]\.entry\.input_buf\[3\]\.X
*758 l_fifo\.genblk1\[29\]\.entry\.input_buf\[3\]\.genblk1\[0\]\.mid
*759 l_fifo\.genblk1\[29\]\.entry\.input_buf\[4\]\.A
*760 l_fifo\.genblk1\[29\]\.entry\.input_buf\[4\]\.X
*761 l_fifo\.genblk1\[29\]\.entry\.input_buf\[4\]\.genblk1\[0\]\.mid
*762 l_fifo\.genblk1\[29\]\.entry\.input_buf\[5\]\.A
*763 l_fifo\.genblk1\[29\]\.entry\.input_buf\[5\]\.X
*764 l_fifo\.genblk1\[29\]\.entry\.input_buf\[5\]\.genblk1\[0\]\.mid
*765 l_fifo\.genblk1\[2\]\.entry\.empty
*766 l_fifo\.genblk1\[2\]\.entry\.input_buf\[0\]\.A
*767 l_fifo\.genblk1\[2\]\.entry\.input_buf\[0\]\.X
*768 l_fifo\.genblk1\[2\]\.entry\.input_buf\[0\]\.genblk1\[0\]\.mid
*769 l_fifo\.genblk1\[2\]\.entry\.input_buf\[1\]\.A
*770 l_fifo\.genblk1\[2\]\.entry\.input_buf\[1\]\.X