*SPEF "ieee 1481-1999"
*DESIGN "MichaelBell_hovalaag"
*DATE "11:11:11 Fri 11 11, 1111"
*VENDOR "OpenRCX"
*PROGRAM "Parallel Extraction"
*VERSION "1.0"
*DESIGN_FLOW "NAME_SCOPE LOCAL" "PIN_CAP NONE"
*DIVIDER /
*DELIMITER :
*BUS_DELIMITER []
*T_UNIT 1 NS
*C_UNIT 1 PF
*R_UNIT 1 OHM
*L_UNIT 1 HENRY

*NAME_MAP
*1 io_in[0]
*2 io_in[1]
*3 io_in[2]
*4 io_in[3]
*5 io_in[4]
*6 io_in[5]
*7 io_in[6]
*8 io_in[7]
*9 io_out[0]
*10 io_out[1]
*11 io_out[2]
*12 io_out[3]
*13 io_out[4]
*14 io_out[5]
*15 io_out[6]
*16 io_out[7]
*19 _0000_
*20 _0001_
*21 _0002_
*22 _0003_
*23 _0004_
*24 _0005_
*25 _0006_
*26 _0007_
*27 _0008_
*28 _0009_
*29 _0010_
*30 _0011_
*31 _0012_
*32 _0013_
*33 _0014_
*34 _0015_
*35 _0016_
*36 _0017_
*37 _0018_
*38 _0019_
*39 _0020_
*40 _0021_
*41 _0022_
*42 _0023_
*43 _0024_
*44 _0025_
*45 _0026_
*46 _0027_
*47 _0028_
*48 _0029_
*49 _0030_
*50 _0031_
*51 _0032_
*52 _0033_
*53 _0034_
*54 _0035_
*55 _0036_
*56 _0037_
*57 _0038_
*58 _0039_
*59 _0040_
*60 _0041_
*61 _0042_
*62 _0043_
*63 _0044_
*64 _0045_
*65 _0046_
*66 _0047_
*67 _0048_
*68 _0049_
*69 _0050_
*70 _0051_
*71 _0052_
*72 _0053_
*73 _0054_
*74 _0055_
*75 _0056_
*76 _0057_
*77 _0058_
*78 _0059_
*79 _0060_
*80 _0061_
*81 _0062_
*82 _0063_
*83 _0064_
*84 _0065_
*85 _0066_
*86 _0067_
*87 _0068_
*88 _0069_
*89 _0070_
*90 _0071_
*91 _0072_
*92 _0073_
*93 _0074_
*94 _0075_
*95 _0076_
*96 _0077_
*97 _0078_
*98 _0079_
*99 _0080_
*100 _0081_
*101 _0082_
*102 _0083_
*103 _0084_
*104 _0085_
*105 _0086_
*106 _0087_
*107 _0088_
*108 _0089_
*109 _0090_
*110 _0091_
*111 _0092_
*112 _0093_
*113 _0094_
*114 _0095_
*115 _0096_
*116 _0097_
*117 _0098_
*118 _0099_
*119 _0100_
*120 _0101_
*121 _0102_
*122 _0103_
*123 _0104_
*124 _0105_
*125 _0106_
*126 _0107_
*127 _0108_
*128 _0109_
*129 _0110_
*130 _0111_
*131 _0112_
*132 _0113_
*133 _0114_
*134 _0115_
*135 _0116_
*136 _0117_
*137 _0118_
*138 _0119_
*139 _0120_
*140 _0121_
*141 _0122_
*142 _0123_
*143 _0124_
*144 _0125_
*145 _0126_
*146 _0127_
*147 _0128_
*148 _0129_
*149 _0130_
*150 _0131_
*151 _0132_
*152 _0133_
*153 _0134_
*154 _0135_
*155 _0136_
*156 _0137_
*157 _0138_
*158 _0139_
*159 _0140_
*160 _0141_
*161 _0142_
*162 _0143_
*163 _0144_
*164 _0145_
*165 _0146_
*166 _0147_
*167 _0148_
*168 _0149_
*169 _0150_
*170 _0151_
*171 _0152_
*172 _0153_
*173 _0154_
*174 _0155_
*175 _0156_
*176 _0157_
*177 _0158_
*178 _0159_
*179 _0160_
*180 _0161_
*181 _0162_
*182 _0163_
*183 _0164_
*184 _0165_
*185 _0166_
*186 _0167_
*187 _0168_
*188 _0169_
*189 _0170_
*190 _0171_
*191 _0172_
*192 _0173_
*193 _0174_
*194 _0175_
*195 _0176_
*196 _0177_
*197 _0178_
*198 _0179_
*199 _0180_
*200 _0181_
*201 _0182_
*202 _0183_
*203 _0184_
*204 _0185_
*205 _0186_
*206 _0187_
*207 _0188_
*208 _0189_
*209 _0190_
*210 _0191_
*211 _0192_
*212 _0193_
*213 _0194_
*214 _0195_
*215 _0196_
*216 _0197_
*217 _0198_
*218 _0199_
*219 _0200_
*220 _0201_
*221 _0202_
*222 _0203_
*223 _0204_
*224 _0205_
*225 _0206_
*226 _0207_
*227 _0208_
*228 _0209_
*229 _0210_
*230 _0211_
*231 _0212_
*232 _0213_
*233 _0214_
*234 _0215_
*235 _0216_
*236 _0217_
*237 _0218_
*238 _0219_
*239 _0220_
*240 _0221_
*241 _0222_
*242 _0223_
*243 _0224_
*244 _0225_
*245 _0226_
*246 _0227_
*247 _0228_
*248 _0229_
*249 _0230_
*250 _0231_
*251 _0232_
*252 _0233_
*253 _0234_
*254 _0235_
*255 _0236_
*256 _0237_
*257 _0238_
*258 _0239_
*259 _0240_
*260 _0241_
*261 _0242_
*262 _0243_
*263 _0244_
*264 _0245_
*265 _0246_
*266 _0247_
*267 _0248_
*268 _0249_
*269 _0250_
*270 _0251_
*271 _0252_
*272 _0253_
*273 _0254_
*274 _0255_
*275 _0256_
*276 _0257_
*277 _0258_
*278 _0259_
*279 _0260_
*280 _0261_
*281 _0262_
*282 _0263_
*283 _0264_
*284 _0265_
*285 _0266_
*286 _0267_
*287 _0268_
*288 _0269_
*289 _0270_
*290 _0271_
*291 _0272_
*292 _0273_
*293 _0274_
*294 _0275_
*295 _0276_
*296 _0277_
*297 _0278_
*298 _0279_
*299 _0280_
*300 _0281_
*301 _0282_
*302 _0283_
*303 _0284_
*304 _0285_
*305 _0286_
*306 _0287_
*307 _0288_
*308 _0289_
*309 _0290_
*310 _0291_
*311 _0292_
*312 _0293_
*313 _0294_
*314 _0295_
*315 _0296_
*316 _0297_
*317 _0298_
*318 _0299_
*319 _0300_
*320 _0301_
*321 _0302_
*322 _0303_
*323 _0304_
*324 _0305_
*325 _0306_
*326 _0307_
*327 _0308_
*328 _0309_
*329 _0310_
*330 _0311_
*331 _0312_
*332 _0313_
*333 _0314_
*334 _0315_
*335 _0316_
*336 _0317_
*337 _0318_
*338 _0319_
*339 _0320_
*340 _0321_
*341 _0322_
*342 _0323_
*343 _0324_
*344 _0325_
*345 _0326_
*346 _0327_
*347 _0328_
*348 _0329_
*349 _0330_
*350 _0331_
*351 _0332_
*352 _0333_
*353 _0334_
*354 _0335_
*355 _0336_
*356 _0337_
*357 _0338_
*358 _0339_
*359 _0340_
*360 _0341_
*361 _0342_
*362 _0343_
*363 _0344_
*364 _0345_
*365 _0346_
*366 _0347_
*367 _0348_
*368 _0349_
*369 _0350_
*370 _0351_
*371 _0352_
*372 _0353_
*373 _0354_
*374 _0355_
*375 _0356_
*376 _0357_
*377 _0358_
*378 _0359_
*379 _0360_
*380 _0361_
*381 _0362_
*382 _0363_
*383 _0364_
*384 _0365_
*385 _0366_
*386 _0367_
*387 _0368_
*388 _0369_
*389 _0370_
*390 _0371_
*391 _0372_
*392 _0373_
*393 _0374_
*394 _0375_
*395 _0376_
*396 _0377_
*397 _0378_
*398 _0379_
*399 _0380_
*400 _0381_
*401 _0382_
*402 _0383_
*403 _0384_
*404 _0385_
*405 _0386_
*406 _0387_
*407 _0388_
*408 _0389_
*409 _0390_
*410 _0391_
*411 _0392_
*412 _0393_
*413 _0394_
*414 _0395_
*415 _0396_
*416 _0397_
*417 _0398_
*418 _0399_
*419 _0400_
*420 _0401_
*421 _0402_
*422 _0403_
*423 _0404_
*424 _0405_
*425 _0406_
*426 _0407_
*427 _0408_
*428 _0409_
*429 _0410_
*430 _0411_
*431 _0412_
*432 _0413_
*433 _0414_
*434 _0415_
*435 _0416_
*436 _0417_
*437 _0418_
*438 _0419_
*439 _0420_
*440 _0421_
*441 _0422_
*442 _0423_
*443 _0424_
*444 _0425_
*445 _0426_
*446 _0427_
*447 _0428_
*448 _0429_
*449 _0430_
*450 _0431_
*451 _0432_
*452 _0433_
*453 _0434_
*454 _0435_
*455 _0436_
*456 _0437_
*457 _0438_
*458 _0439_
*459 _0440_
*460 _0441_
*461 _0442_
*462 _0443_
*463 _0444_
*464 _0445_
*465 _0446_
*466 _0447_
*467 _0448_
*468 _0449_
*469 _0450_
*470 _0451_
*471 _0452_
*472 _0453_
*473 _0454_
*474 _0455_
*475 _0456_
*476 _0457_
*477 _0458_
*478 _0459_
*479 _0460_
*480 _0461_
*481 _0462_
*482 _0463_
*483 _0464_
*484 _0465_
*485 _0466_
*486 _0467_
*487 _0468_
*488 _0469_
*489 _0470_
*490 _0471_
*491 _0472_
*492 _0473_
*493 _0474_
*494 _0475_
*495 _0476_
*496 _0477_
*497 _0478_
*498 _0479_
*499 _0480_
*500 _0481_
*501 _0482_
*502 _0483_
*503 _0484_
*504 _0485_
*505 _0486_
*506 _0487_
*507 _0488_
*508 _0489_
*509 _0490_
*510 _0491_
*511 _0492_
*512 _0493_
*513 _0494_
*514 _0495_
*515 _0496_
*516 _0497_
*517 _0498_
*518 _0499_
*519 _0500_
*520 _0501_
*521 _0502_
*522 _0503_
*523 _0504_
*524 _0505_
*525 _0506_
*526 _0507_
*527 _0508_
*528 _0509_
*529 _0510_
*530 _0511_
*531 _0512_
*532 _0513_
*533 _0514_
*534 _0515_
*535 _0516_
*536 _0517_
*537 _0518_
*538 _0519_
*539 _0520_
*540 _0521_
*541 _0522_
*542 _0523_
*543 _0524_
*544 _0525_
*545 _0526_
*546 _0527_
*547 _0528_
*548 _0529_
*549 _0530_
*550 _0531_
*551 _0532_
*552 _0533_
*553 _0534_
*554 _0535_
*555 _0536_
*556 _0537_
*557 _0538_
*558 _0539_
*559 _0540_
*560 _0541_
*561 _0542_
*562 _0543_
*563 _0544_
*564 _0545_
*565 _0546_
*566 _0547_
*567 _0548_
*568 _0549_
*569 _0550_
*570 _0551_
*571 _0552_
*572 _0553_
*573 _0554_
*574 _0555_
*575 _0556_
*576 _0557_
*577 _0558_
*578 _0559_
*579 _0560_
*580 _0561_
*581 _0562_
*582 _0563_
*583 _0564_
*584 _0565_
*585 _0566_
*586 _0567_
*587 _0568_
*588 _0569_
*589 _0570_
*590 _0571_
*591 _0572_
*592 _0573_
*593 _0574_
*594 _0575_
*595 _0576_
*596 _0577_
*597 _0578_
*598 _0579_
*599 _0580_
*600 _0581_
*601 _0582_
*602 _0583_
*603 _0584_
*604 _0585_
*605 _0586_
*606 _0587_
*607 _0588_
*608 _0589_
*609 _0590_
*610 _0591_
*611 _0592_
*612 _0593_
*613 _0594_
*614 _0595_
*615 _0596_
*616 _0597_
*617 _0598_
*618 _0599_
*619 _0600_
*620 _0601_
*621 _0602_
*622 _0603_
*623 _0604_
*624 _0605_
*625 _0606_
*626 _0607_
*627 _0608_
*628 _0609_
*629 _0610_
*630 _0611_
*631 _0612_
*632 _0613_
*633 _0614_
*634 _0615_
*635 _0616_
*636 _0617_
*637 _0618_
*638 _0619_
*639 _0620_
*640 _0621_
*641 _0622_
*642 _0623_
*643 _0624_
*644 _0625_
*645 _0626_
*646 _0627_
*647 _0628_
*648 _0629_
*649 _0630_
*650 _0631_
*651 _0632_
*652 _0633_
*653 _0634_
*654 _0635_
*655 _0636_
*656 _0637_
*657 _0638_
*658 _0639_
*659 _0640_
*660 _0641_
*661 _0642_
*662 _0643_
*663 _0644_
*664 _0645_
*665 _0646_
*666 _0647_
*667 _0648_
*668 _0649_
*669 _0650_
*670 _0651_
*671 _0652_
*672 _0653_
*673 _0654_
*674 _0655_
*675 _0656_
*676 _0657_
*677 _0658_
*678 _0659_
*679 _0660_
*680 _0661_
*681 _0662_
*682 _0663_
*683 _0664_
*684 _0665_
*685 _0666_
*686 _0667_
*687 _0668_
*688 _0669_
*689 _0670_
*690 _0671_
*691 _0672_
*692 _0673_
*693 _0674_
*694 _0675_
*695 _0676_
*696 _0677_
*697 _0678_
*698 _0679_
*699 _0680_
*700 _0681_
*701 _0682_
*702 _0683_
*703 _0684_
*704 _0685_
*705 _0686_
*706 _0687_
*707 _0688_
*708 _0689_
*709 _0690_
*710 _0691_
*711 _0692_
*712 _0693_
*713 _0694_
*714 _0695_
*715 _0696_
*716 _0697_
*717 _0698_
*718 _0699_
*719 _0700_
*720 _0701_
*721 _0702_
*722 _0703_
*723 _0704_
*724 _0705_
*725 _0706_
*726 _0707_
*727 _0708_
*728 _0709_
*729 _0710_
*730 _0711_
*731 _0712_
*732 _0713_
*733 _0714_
*734 _0715_
*735 _0716_
*736 _0717_
*737 _0718_
*738 _0719_
*739 _0720_
*740 _0721_
*741 _0722_
*742 _0723_
*743 _0724_
*744 _0725_
*745 _0726_
*746 _0727_
*747 _0728_
*748 _0729_
*749 _0730_
*750 _0731_
*751 _0732_
*752 _0733_
*753 _0734_
*754 _0735_
*755 _0736_
*756 _0737_
*757 _0738_
*758 _0739_
*759 _0740_
*760 _0741_
*761 _0742_
*762 _0743_
*763 _0744_
*764 _0745_
*765 _0746_
*766 _0747_
*767 _0748_
*768 _0749_
*769 _0750_
*770 _0751_
*771 _0752_
*772 _0753_
*773 _0754_
*774 _0755_
*775 _0756_
*776 _0757_
*777 _0758_
*778 _0759_
*779 _0760_
*780 _0761_
*781 _0762_
*782 _0763_
*783 _0764_
*784 _0765_
*785 _0766_
*786 _0767_
*787 _0768_
*788 _0769_
*789 _0770_
*790 _0771_
*791 _0772_
*792 _0773_
*793 _0774_
*794 _0775_
*795 _0776_
*796 _0777_
*797 _0778_
*798 _0779_
*799 _0780_
*800 _0781_
*801 _0782_
*802 _0783_
*803 _0784_
*804 _0785_
*805 _0786_
*806 _0787_
*807 _0788_
*808 _0789_
*809 _0790_
*810 _0791_
*811 _0792_
*812 _0793_
*813 _0794_
*814 _0795_
*815 _0796_
*816 _0797_
*817 _0798_
*818 _0799_
*819 _0800_
*820 _0801_
*821 _0802_
*822 _0803_
*823 _0804_
*824 _0805_
*825 _0806_
*826 _0807_
*827 _0808_
*828 _0809_
*829 _0810_
*830 _0811_
*831 _0812_
*832 _0813_
*833 _0814_
*834 _0815_
*835 _0816_
*836 _0817_
*837 _0818_
*838 _0819_
*839 _0820_
*840 _0821_
*841 _0822_
*842 _0823_
*843 _0824_
*844 _0825_
*845 _0826_
*846 _0827_
*847 _0828_
*848 _0829_
*849 _0830_
*850 _0831_
*851 _0832_
*852 _0833_
*853 _0834_
*854 _0835_
*855 _0836_
*856 _0837_
*857 _0838_
*858 _0839_
*859 _0840_
*860 _0841_
*861 _0842_
*862 _0843_
*863 _0844_
*864 _0845_
*865 _0846_
*866 _0847_
*867 _0848_
*868 _0849_
*869 _0850_
*870 _0851_
*871 _0852_
*872 _0853_
*873 _0854_
*874 _0855_
*875 _0856_
*876 _0857_
*877 _0858_
*878 _0859_
*879 _0860_
*880 _0861_
*881 _0862_
*882 _0863_
*883 _0864_
*884 _0865_
*885 _0866_
*886 _0867_
*887 _0868_
*888 _0869_
*889 _0870_
*890 _0871_
*891 _0872_
*892 _0873_
*893 _0874_
*894 _0875_
*895 _0876_
*896 _0877_
*897 _0878_
*898 _0879_
*899 _0880_
*900 _0881_
*901 _0882_
*902 _0883_
*903 _0884_
*904 _0885_
*905 _0886_
*906 _0887_
*907 _0888_
*908 _0889_
*909 _0890_
*910 _0891_
*911 _0892_
*912 _0893_
*913 _0894_
*914 _0895_
*915 _0896_
*916 _0897_
*917 _0898_
*918 _0899_
*919 _0900_
*920 _0901_
*921 _0902_
*922 _0903_
*923 _0904_
*924 _0905_
*925 _0906_
*926 _0907_
*927 _0908_
*928 _0909_
*929 _0910_
*930 _0911_
*931 _0912_
*932 _0913_
*933 _0914_
*934 _0915_
*935 _0916_
*936 _0917_
*937 _0918_
*938 _0919_
*939 _0920_
*940 _0921_
*941 _0922_
*942 _0923_
*943 _0924_
*944 _0925_
*945 _0926_
*946 _0927_
*947 _0928_
*948 _0929_
*949 _0930_
*950 _0931_
*951 _0932_
*952 _0933_
*953 _0934_
*954 _0935_
*955 _0936_
*956 _0937_
*957 _0938_
*958 _0939_
*959 _0940_
*960 _0941_
*961 _0942_
*962 _0943_
*963 _0944_
*964 _0945_
*965 _0946_
*966 _0947_
*967 _0948_
*968 _0949_
*969 _0950_
*970 _0951_
*971 _0952_
*972 _0953_
*973 _0954_
*974 _0955_
*975 _0956_
*976 _0957_
*977 _0958_
*978 _0959_
*979 _0960_
*980 _0961_
*981 _0962_
*982 _0963_
*983 _0964_
*984 _0965_
*985 _0966_
*986 _0967_
*987 _0968_
*988 _0969_
*989 _0970_
*990 _0971_
*991 _0972_
*992 _0973_
*993 _0974_
*994 _0975_
*995 _0976_
*996 _0977_
*997 _0978_
*998 _0979_
*999 _0980_
*1000 _0981_
*1001 _0982_
*1002 _0983_
*1003 _0984_
*1004 _0985_
*1005 _0986_
*1006 _0987_
*1007 _0988_
*1008 _0989_
*1009 _0990_
*1010 _0991_
*1011 _0992_
*1012 _0993_
*1013 _0994_
*1014 _0995_
*1015 _0996_
*1016 _0997_
*1017 _0998_
*1018 _0999_
*1019 _1000_
*1020 _1001_
*1021 _1002_
*1022 _1003_
*1023 _1004_
*1024 _1005_
*1025 _1006_
*1026 _1007_
*1027 _1008_
*1028 _1009_
*1029 _1010_
*1030 _1011_
*1031 _1012_
*1032 _1013_
*1033 _1014_
*1034 _1015_
*1035 _1016_
*1036 _1017_
*1037 _1018_
*1038 _1019_
*1039 _1020_
*1040 _1021_
*1041 _1022_
*1042 _1023_
*1043 _1024_
*1044 _1025_
*1045 _1026_
*1046 _1027_
*1047 _1028_
*1048 _1029_
*1049 _1030_
*1050 _1031_
*1051 _1032_
*1052 _1033_
*1053 _1034_
*1054 _1035_
*1055 _1036_
*1056 clknet_0_io_in[0]
*1057 clknet_4_0_0_io_in[0]
*1058 clknet_4_10_0_io_in[0]
*1059 clknet_4_11_0_io_in[0]
*1060 clknet_4_12_0_io_in[0]
*1061 clknet_4_13_0_io_in[0]
*1062 clknet_4_14_0_io_in[0]
*1063 clknet_4_15_0_io_in[0]
*1064 clknet_4_1_0_io_in[0]
*1065 clknet_4_2_0_io_in[0]
*1066 clknet_4_3_0_io_in[0]
*1067 clknet_4_4_0_io_in[0]
*1068 clknet_4_5_0_io_in[0]
*1069 clknet_4_6_0_io_in[0]
*1070 clknet_4_7_0_io_in[0]
*1071 clknet_4_8_0_io_in[0]
*1072 clknet_4_9_0_io_in[0]
*1073 inv_clk2
*1074 net1
*1075 net10
*1076 net2
*1077 net3
*1078 net4
*1079 net5
*1080 net6
*1081 net7
*1082 net8
*1083 net9
*1084 wrapper\.addr\[0\]
*1085 wrapper\.addr\[1\]
*1086 wrapper\.addr\[2\]
*1087 wrapper\.addr\[3\]
*1088 wrapper\.addr\[4\]
*1089 wrapper\.addr\[5\]
*1090 wrapper\.addr\[6\]
*1091 wrapper\.addr\[7\]
*1092 wrapper\.addr\[8\]
*1093 wrapper\.addr\[9\]
*1094 wrapper\.buffered_fast_count\[0\]
*1095 wrapper\.buffered_fast_count\[10\]
*1096 wrapper\.buffered_fast_count\[11\]
*1097 wrapper\.buffered_fast_count\[1\]
*1098 wrapper\.buffered_fast_count\[2\]
*1099 wrapper\.buffered_fast_count\[3\]
*1100 wrapper\.buffered_fast_count\[4\]
*1101 wrapper\.buffered_fast_count\[5\]
*1102 wrapper\.buffered_fast_count\[6\]
*1103 wrapper\.buffered_fast_count\[7\]
*1104 wrapper\.buffered_fast_count\[8\]
*1105 wrapper\.buffered_fast_count\[9\]
*1106 wrapper\.fast_count\[0\]
*1107 wrapper\.fast_count\[10\]
*1108 wrapper\.fast_count\[11\]
*1109 wrapper\.fast_count\[1\]
*1110 wrapper\.fast_count\[2\]
*1111 wrapper\.fast_count\[3\]
*1112 wrapper\.fast_count\[4\]
*1113 wrapper\.fast_count\[5\]
*1114 wrapper\.fast_count\[6\]
*1115 wrapper\.fast_count\[7\]
*1116 wrapper\.fast_count\[8\]
*1117 wrapper\.fast_count\[9\]
*1118 wrapper\.hov\.A\[0\]
*1119 wrapper\.hov\.A\[10\]
*1120 wrapper\.hov\.A\[11\]
*1121 wrapper\.hov\.A\[1\]
*1122 wrapper\.hov\.A\[2\]
*1123 wrapper\.hov\.A\[3\]
*1124 wrapper\.hov\.A\[4\]
*1125 wrapper\.hov\.A\[5\]
*1126 wrapper\.hov\.A\[6\]
*1127 wrapper\.hov\.A\[7\]
*1128 wrapper\.hov\.A\[8\]
*1129 wrapper\.hov\.A\[9\]
*1130 wrapper\.hov\.A_op\[0\]
*1131 wrapper\.hov\.A_op\[1\]
*1132 wrapper\.hov\.B\[0\]
*1133 wrapper\.hov\.B\[10\]
*1134 wrapper\.hov\.B\[11\]
*1135 wrapper\.hov\.B\[1\]
*1136 wrapper\.hov\.B\[2\]
*1137 wrapper\.hov\.B\[3\]
*1138 wrapper\.hov\.B\[4\]
*1139 wrapper\.hov\.B\[5\]
*1140 wrapper\.hov\.B\[6\]
*1141 wrapper\.hov\.B\[7\]
*1142 wrapper\.hov\.B\[8\]
*1143 wrapper\.hov\.B\[9\]
*1144 wrapper\.hov\.B_op\[0\]
*1145 wrapper\.hov\.B_op\[1\]
*1146 wrapper\.hov\.C\[0\]
*1147 wrapper\.hov\.C\[10\]
*1148 wrapper\.hov\.C\[11\]
*1149 wrapper\.hov\.C\[1\]
*1150 wrapper\.hov\.C\[2\]
*1151 wrapper\.hov\.C\[3\]
*1152 wrapper\.hov\.C\[4\]
*1153 wrapper\.hov\.C\[5\]
*1154 wrapper\.hov\.C\[6\]
*1155 wrapper\.hov\.C\[7\]
*1156 wrapper\.hov\.C\[8\]
*1157 wrapper\.hov\.C\[9\]
*1158 wrapper\.hov\.C_op\[0\]
*1159 wrapper\.hov\.C_op\[1\]
*1160 wrapper\.hov\.D\[0\]
*1161 wrapper\.hov\.D\[10\]
*1162 wrapper\.hov\.D\[11\]
*1163 wrapper\.hov\.D\[1\]
*1164 wrapper\.hov\.D\[2\]
*1165 wrapper\.hov\.D\[3\]
*1166 wrapper\.hov\.D\[4\]
*1167 wrapper\.hov\.D\[5\]
*1168 wrapper\.hov\.D\[6\]
*1169 wrapper\.hov\.D\[7\]
*1170 wrapper\.hov\.D\[8\]
*1171 wrapper\.hov\.D\[9\]
*1172 wrapper\.hov\.D_op
*1173 wrapper\.hov\.F
*1174 wrapper\.hov\.F_op\[0\]
*1175 wrapper\.hov\.F_op\[1\]
*1176 wrapper\.hov\.IN1\[0\]
*1177 wrapper\.hov\.IN1\[10\]
*1178 wrapper\.hov\.IN1\[11\]
*1179 wrapper\.hov\.IN1\[1\]
*1180 wrapper\.hov\.IN1\[2\]
*1181 wrapper\.hov\.IN1\[3\]
*1182 wrapper\.hov\.IN1\[4\]
*1183 wrapper\.hov\.IN1\[5\]
*1184 wrapper\.hov\.IN1\[6\]
*1185 wrapper\.hov\.IN1\[7\]
*1186 wrapper\.hov\.IN1\[8\]
*1187 wrapper\.hov\.IN1\[9\]
*1188 wrapper\.hov\.IN2\[0\]
*1189 wrapper\.hov\.IN2\[10\]
*1190 wrapper\.hov\.IN2\[11\]
*1191 wrapper\.hov\.IN2\[1\]
*1192 wrapper\.hov\.IN2\[2\]
*1193 wrapper\.hov\.IN2\[3\]
*1194 wrapper\.hov\.IN2\[4\]
*1195 wrapper\.hov\.IN2\[5\]
*1196 wrapper\.hov\.IN2\[6\]
*1197 wrapper\.hov\.IN2\[7\]
*1198 wrapper\.hov\.IN2\[8\]
*1199 wrapper\.hov\.IN2\[9\]
*1200 wrapper\.hov\.IO_select
*1201 wrapper\.hov\.K\[11\]
*1202 wrapper\.hov\.L\[0\]
*1203 wrapper\.hov\.L\[1\]
*1204 wrapper\.hov\.L\[2\]
*1205 wrapper\.hov\.L\[3\]
*1206 wrapper\.hov\.L\[4\]
*1207 wrapper\.hov\.L\[5\]
*1208 wrapper\.hov\.OUT\[0\]
*1209 wrapper\.hov\.OUT\[10\]
*1210 wrapper\.hov\.OUT\[11\]
*1211 wrapper\.hov\.OUT\[1\]
*1212 wrapper\.hov\.OUT\[2\]
*1213 wrapper\.hov\.OUT\[3\]
*1214 wrapper\.hov\.OUT\[4\]
*1215 wrapper\.hov\.OUT\[5\]
*1216 wrapper\.hov\.OUT\[6\]
*1217 wrapper\.hov\.OUT\[7\]
*1218 wrapper\.hov\.OUT\[8\]
*1219 wrapper\.hov\.OUT\[9\]
*1220 wrapper\.hov\.PC\[0\]
*1221 wrapper\.hov\.PC\[1\]
*1222 wrapper\.hov\.PC\[2\]
*1223 wrapper\.hov\.PC\[3\]
*1224 wrapper\.hov\.PC\[4\]
*1225 wrapper\.hov\.PC\[5\]
*1226 wrapper\.hov\.PC\[6\]
*1227 wrapper\.hov\.PC\[7\]
*1228 wrapper\.hov\.PC_op\[0\]
*1229 wrapper\.hov\.PC_op\[1\]
*1230 wrapper\.hov\.W\[0\]
*1231 wrapper\.hov\.W\[10\]
*1232 wrapper\.hov\.W\[11\]
*1233 wrapper\.hov\.W\[1\]
*1234 wrapper\.hov\.W\[2\]
*1235 wrapper\.hov\.W\[3\]
*1236 wrapper\.hov\.W\[4\]
*1237 wrapper\.hov\.W\[5\]
*1238 wrapper\.hov\.W\[6\]
*1239 wrapper\.hov\.W\[7\]
*1240 wrapper\.hov\.W\[8\]
*1241 wrapper\.hov\.W\[9\]
*1242 wrapper\.hov\.W_op\[0\]
*1243 wrapper\.hov\.W_op\[1\]
*1244 wrapper\.hov\.alu_op\[0\]
*1245 wrapper\.hov\.alu_op\[1\]
*1246 wrapper\.hov\.instr\[10\]
*1247 wrapper\.hov\.instr\[12\]
*1248 wrapper\.hov\.instr\[14\]
*1249 wrapper\.hov\.instr\[6\]
*1250 wrapper\.hov\.instr\[7\]
*1251 wrapper\.hov\.instr\[8\]
*1252 wrapper\.hov\.instr\[9\]
*1253 wrapper\.inv_clk
*1254 wrapper\.rosc\.c\[0\]
*1255 wrapper\.rosc\.c\[1\]
*1256 wrapper\.rosc\.c\[2\]
*1257 wrapper\.rosc\.c\[3\]
*1258 wrapper\.rosc\.c\[4\]
*1259 wrapper\.rosc\.c\[5\]
*1260 wrapper\.rosc\.c\[6\]
*1261 wrapper\.rosc\.clk_div\[0\]
*1262 wrapper\.rosc\.clk_div\[1\]
*1263 wrapper\.rosc\.fast_clk
*1264 wrapper\.seg7\.segments\[0\]
*1265 wrapper\.seg7\.segments\[1\]
*1266 wrapper\.seg7\.segments\[2\]
*1267 wrapper\.seg7\.segments\[3\]
*1268 wrapper\.seg7\.segments\[4\]
*1269 wrapper\.seg7\.segments\[5\]
*1270 wrapper\.seg7\.segments\[6\]
*1271 ANTENNA_1
*1272 ANTENNA_2
*1273 ANTENNA_3
*1274 ANTENNA_4
*1275 ANTENNA_5
*1276 ANTENNA_6
*1277 ANTENNA_7
*1278 FILLER_0_108
*1279 FILLER_0_113
*1280 FILLER_0_120
*1281 FILLER_0_128
*1282 FILLER_0_136
*1283 FILLER_0_141
*1284 FILLER_0_163
*1285 FILLER_0_167
*1286 FILLER_0_169
*1287 FILLER_0_17
*1288 FILLER_0_175
*1289 FILLER_0_182
*1290 FILLER_0_186
*1291 FILLER_0_191
*1292 FILLER_0_195
*1293 FILLER_0_197
*1294 FILLER_0_202
*1295 FILLER_0_209
*1296 FILLER_0_216
*1297 FILLER_0_225
*1298 FILLER_0_230
*1299 FILLER_0_237
*1300 FILLER_0_244
*1301 FILLER_0_253
*1302 FILLER_0_26
*1303 FILLER_0_264
*1304 FILLER_0_271
*1305 FILLER_0_278
*1306 FILLER_0_281
*1307 FILLER_0_286
*1308 FILLER_0_29
*1309 FILLER_0_290
*1310 FILLER_0_294
*1311 FILLER_0_298
*1312 FILLER_0_3
*1313 FILLER_0_39
*1314 FILLER_0_47
*1315 FILLER_0_54
*1316 FILLER_0_57
*1317 FILLER_0_70
*1318 FILLER_0_82
*1319 FILLER_0_85
*1320 FILLER_0_96
*1321 FILLER_10_100
*1322 FILLER_10_112
*1323 FILLER_10_118
*1324 FILLER_10_125
*1325 FILLER_10_133
*1326 FILLER_10_138
*1327 FILLER_10_141
*1328 FILLER_10_150
*1329 FILLER_10_168
*1330 FILLER_10_172
*1331 FILLER_10_178
*1332 FILLER_10_186
*1333 FILLER_10_194
*1334 FILLER_10_197
*1335 FILLER_10_207
*1336 FILLER_10_211
*1337 FILLER_10_228
*1338 FILLER_10_238
*1339 FILLER_10_244
*1340 FILLER_10_250
*1341 FILLER_10_253
*1342 FILLER_10_26
*1343 FILLER_10_261
*1344 FILLER_10_273
*1345 FILLER_10_284
*1346 FILLER_10_29
*1347 FILLER_10_292
*1348 FILLER_10_298
*1349 FILLER_10_3
*1350 FILLER_10_39
*1351 FILLER_10_43
*1352 FILLER_10_63
*1353 FILLER_10_67
*1354 FILLER_10_73
*1355 FILLER_10_82
*1356 FILLER_10_85
*1357 FILLER_10_9
*1358 FILLER_11_107
*1359 FILLER_11_111
*1360 FILLER_11_113
*1361 FILLER_11_124
*1362 FILLER_11_133
*1363 FILLER_11_150
*1364 FILLER_11_158
*1365 FILLER_11_166
*1366 FILLER_11_169
*1367 FILLER_11_187
*1368 FILLER_11_191
*1369 FILLER_11_199
*1370 FILLER_11_213
*1371 FILLER_11_221
*1372 FILLER_11_225
*1373 FILLER_11_23
*1374 FILLER_11_236
*1375 FILLER_11_246
*1376 FILLER_11_255
*1377 FILLER_11_266
*1378 FILLER_11_276
*1379 FILLER_11_281
*1380 FILLER_11_292
*1381 FILLER_11_298
*1382 FILLER_11_3
*1383 FILLER_11_36
*1384 FILLER_11_42
*1385 FILLER_11_51
*1386 FILLER_11_55
*1387 FILLER_11_57
*1388 FILLER_11_62
*1389 FILLER_11_71
*1390 FILLER_11_80
*1391 FILLER_11_98
*1392 FILLER_12_100
*1393 FILLER_12_120
*1394 FILLER_12_128
*1395 FILLER_12_136
*1396 FILLER_12_141
*1397 FILLER_12_147
*1398 FILLER_12_17
*1399 FILLER_12_172
*1400 FILLER_12_181
*1401 FILLER_12_187
*1402 FILLER_12_194
*1403 FILLER_12_197
*1404 FILLER_12_203
*1405 FILLER_12_207
*1406 FILLER_12_220
*1407 FILLER_12_232
*1408 FILLER_12_242
*1409 FILLER_12_249
*1410 FILLER_12_253
*1411 FILLER_12_26
*1412 FILLER_12_260
*1413 FILLER_12_267
*1414 FILLER_12_273
*1415 FILLER_12_282
*1416 FILLER_12_29
*1417 FILLER_12_291
*1418 FILLER_12_3
*1419 FILLER_12_35
*1420 FILLER_12_46
*1421 FILLER_12_50
*1422 FILLER_12_56
*1423 FILLER_12_67
*1424 FILLER_12_8
*1425 FILLER_12_80
*1426 FILLER_12_85
*1427 FILLER_12_92
*1428 FILLER_13_109
*1429 FILLER_13_113
*1430 FILLER_13_133
*1431 FILLER_13_145
*1432 FILLER_13_158
*1433 FILLER_13_166
*1434 FILLER_13_169
*1435 FILLER_13_175
*1436 FILLER_13_186
*1437 FILLER_13_196
*1438 FILLER_13_204
*1439 FILLER_13_212
*1440 FILLER_13_221
*1441 FILLER_13_225
*1442 FILLER_13_231
*1443 FILLER_13_239
*1444 FILLER_13_24
*1445 FILLER_13_248
*1446 FILLER_13_252
*1447 FILLER_13_260
*1448 FILLER_13_266
*1449 FILLER_13_276
*1450 FILLER_13_281
*1451 FILLER_13_287
*1452 FILLER_13_295
*1453 FILLER_13_3
*1454 FILLER_13_36
*1455 FILLER_13_47
*1456 FILLER_13_54
*1457 FILLER_13_57
*1458 FILLER_13_67
*1459 FILLER_13_7
*1460 FILLER_13_73
*1461 FILLER_13_85
*1462 FILLER_13_91
*1463 FILLER_13_97
*1464 FILLER_14_107
*1465 FILLER_14_119
*1466 FILLER_14_134
*1467 FILLER_14_141
*1468 FILLER_14_155
*1469 FILLER_14_159
*1470 FILLER_14_166
*1471 FILLER_14_174
*1472 FILLER_14_182
*1473 FILLER_14_190
*1474 FILLER_14_197
*1475 FILLER_14_21
*1476 FILLER_14_215
*1477 FILLER_14_222
*1478 FILLER_14_234
*1479 FILLER_14_245
*1480 FILLER_14_251
*1481 FILLER_14_253
*1482 FILLER_14_262
*1483 FILLER_14_27
*1484 FILLER_14_273
*1485 FILLER_14_283
*1486 FILLER_14_287
*1487 FILLER_14_29
*1488 FILLER_14_293
*1489 FILLER_14_3
*1490 FILLER_14_36
*1491 FILLER_14_45
*1492 FILLER_14_54
*1493 FILLER_14_60
*1494 FILLER_14_68
*1495 FILLER_14_72
*1496 FILLER_14_80
*1497 FILLER_14_85
*1498 FILLER_14_89
*1499 FILLER_14_95
*1500 FILLER_15_103
*1501 FILLER_15_110
*1502 FILLER_15_113
*1503 FILLER_15_135
*1504 FILLER_15_14
*1505 FILLER_15_149
*1506 FILLER_15_159
*1507 FILLER_15_166
*1508 FILLER_15_169
*1509 FILLER_15_187
*1510 FILLER_15_197
*1511 FILLER_15_207
*1512 FILLER_15_215
*1513 FILLER_15_222
*1514 FILLER_15_225
*1515 FILLER_15_233
*1516 FILLER_15_241
*1517 FILLER_15_248
*1518 FILLER_15_255
*1519 FILLER_15_262
*1520 FILLER_15_269
*1521 FILLER_15_273
*1522 FILLER_15_278
*1523 FILLER_15_281
*1524 FILLER_15_285
*1525 FILLER_15_29
*1526 FILLER_15_291
*1527 FILLER_15_3
*1528 FILLER_15_41
*1529 FILLER_15_54
*1530 FILLER_15_57
*1531 FILLER_15_70
*1532 FILLER_15_79
*1533 FILLER_16_104
*1534 FILLER_16_11
*1535 FILLER_16_112
*1536 FILLER_16_119
*1537 FILLER_16_128
*1538 FILLER_16_137
*1539 FILLER_16_141
*1540 FILLER_16_147
*1541 FILLER_16_15
*1542 FILLER_16_156
*1543 FILLER_16_162
*1544 FILLER_16_167
*1545 FILLER_16_177
*1546 FILLER_16_185
*1547 FILLER_16_193
*1548 FILLER_16_197
*1549 FILLER_16_203
*1550 FILLER_16_210
*1551 FILLER_16_218
*1552 FILLER_16_230
*1553 FILLER_16_236
*1554 FILLER_16_244
*1555 FILLER_16_253
*1556 FILLER_16_26
*1557 FILLER_16_262
*1558 FILLER_16_271
*1559 FILLER_16_282
*1560 FILLER_16_29
*1561 FILLER_16_295
*1562 FILLER_16_3
*1563 FILLER_16_49
*1564 FILLER_16_56
*1565 FILLER_16_67
*1566 FILLER_16_77
*1567 FILLER_16_83
*1568 FILLER_16_85
*1569 FILLER_16_95
*1570 FILLER_17_107
*1571 FILLER_17_111
*1572 FILLER_17_113
*1573 FILLER_17_127
*1574 FILLER_17_136
*1575 FILLER_17_142
*1576 FILLER_17_148
*1577 FILLER_17_152
*1578 FILLER_17_159
*1579 FILLER_17_166
*1580 FILLER_17_169
*1581 FILLER_17_180
*1582 FILLER_17_190
*1583 FILLER_17_197
*1584 FILLER_17_217
*1585 FILLER_17_223
*1586 FILLER_17_225
*1587 FILLER_17_235
*1588 FILLER_17_248
*1589 FILLER_17_260
*1590 FILLER_17_268
*1591 FILLER_17_27
*1592 FILLER_17_277
*1593 FILLER_17_281
*1594 FILLER_17_295
*1595 FILLER_17_3
*1596 FILLER_17_39
*1597 FILLER_17_54
*1598 FILLER_17_57
*1599 FILLER_17_67
*1600 FILLER_17_91
*1601 FILLER_18_110
*1602 FILLER_18_118
*1603 FILLER_18_138
*1604 FILLER_18_141
*1605 FILLER_18_145
*1606 FILLER_18_15
*1607 FILLER_18_152
*1608 FILLER_18_173
*1609 FILLER_18_181
*1610 FILLER_18_191
*1611 FILLER_18_195
*1612 FILLER_18_197
*1613 FILLER_18_206
*1614 FILLER_18_214
*1615 FILLER_18_219
*1616 FILLER_18_234
*1617 FILLER_18_243
*1618 FILLER_18_250
*1619 FILLER_18_253
*1620 FILLER_18_26
*1621 FILLER_18_263
*1622 FILLER_18_275
*1623 FILLER_18_284
*1624 FILLER_18_29
*1625 FILLER_18_292
*1626 FILLER_18_298
*1627 FILLER_18_3
*1628 FILLER_18_33
*1629 FILLER_18_50
*1630 FILLER_18_57
*1631 FILLER_18_68
*1632 FILLER_18_82
*1633 FILLER_18_85
*1634 FILLER_18_90
*1635 FILLER_19_101
*1636 FILLER_19_109
*1637 FILLER_19_113
*1638 FILLER_19_135
*1639 FILLER_19_141
*1640 FILLER_19_151
*1641 FILLER_19_163
*1642 FILLER_19_167
*1643 FILLER_19_169
*1644 FILLER_19_175
*1645 FILLER_19_181
*1646 FILLER_19_188
*1647 FILLER_19_195
*1648 FILLER_19_21
*1649 FILLER_19_213
*1650 FILLER_19_217
*1651 FILLER_19_222
*1652 FILLER_19_225
*1653 FILLER_19_231
*1654 FILLER_19_241
*1655 FILLER_19_253
*1656 FILLER_19_260
*1657 FILLER_19_269
*1658 FILLER_19_273
*1659 FILLER_19_278
*1660 FILLER_19_281
*1661 FILLER_19_292
*1662 FILLER_19_298
*1663 FILLER_19_3
*1664 FILLER_19_34
*1665 FILLER_19_46
*1666 FILLER_19_54
*1667 FILLER_19_57
*1668 FILLER_19_66
*1669 FILLER_19_79
*1670 FILLER_19_85
*1671 FILLER_19_93
*1672 FILLER_1_106
*1673 FILLER_1_11
*1674 FILLER_1_113
*1675 FILLER_1_131
*1676 FILLER_1_139
*1677 FILLER_1_145
*1678 FILLER_1_166
*1679 FILLER_1_169
*1680 FILLER_1_175
*1681 FILLER_1_183
*1682 FILLER_1_205
*1683 FILLER_1_213
*1684 FILLER_1_222
*1685 FILLER_1_225
*1686 FILLER_1_247
*1687 FILLER_1_271
*1688 FILLER_1_278
*1689 FILLER_1_281
*1690 FILLER_1_286
*1691 FILLER_1_295
*1692 FILLER_1_3
*1693 FILLER_1_31
*1694 FILLER_1_51
*1695 FILLER_1_55
*1696 FILLER_1_57
*1697 FILLER_1_70
*1698 FILLER_1_74
*1699 FILLER_1_91
*1700 FILLER_20_11
*1701 FILLER_20_111
*1702 FILLER_20_123
*1703 FILLER_20_138
*1704 FILLER_20_141
*1705 FILLER_20_148
*1706 FILLER_20_163
*1707 FILLER_20_169
*1708 FILLER_20_179
*1709 FILLER_20_187
*1710 FILLER_20_19
*1711 FILLER_20_194
*1712 FILLER_20_197
*1713 FILLER_20_202
*1714 FILLER_20_210
*1715 FILLER_20_222
*1716 FILLER_20_236
*1717 FILLER_20_246
*1718 FILLER_20_253
*1719 FILLER_20_259
*1720 FILLER_20_26
*1721 FILLER_20_263
*1722 FILLER_20_271
*1723 FILLER_20_277
*1724 FILLER_20_285
*1725 FILLER_20_29
*1726 FILLER_20_296
*1727 FILLER_20_3
*1728 FILLER_20_35
*1729 FILLER_20_44
*1730 FILLER_20_52
*1731 FILLER_20_64
*1732 FILLER_20_72
*1733 FILLER_20_81
*1734 FILLER_20_85
*1735 FILLER_20_98
*1736 FILLER_21_107
*1737 FILLER_21_11
*1738 FILLER_21_111
*1739 FILLER_21_113
*1740 FILLER_21_123
*1741 FILLER_21_129
*1742 FILLER_21_135
*1743 FILLER_21_152
*1744 FILLER_21_162
*1745 FILLER_21_169
*1746 FILLER_21_177
*1747 FILLER_21_181
*1748 FILLER_21_198
*1749 FILLER_21_20
*1750 FILLER_21_206
*1751 FILLER_21_217
*1752 FILLER_21_223
*1753 FILLER_21_225
*1754 FILLER_21_229
*1755 FILLER_21_237
*1756 FILLER_21_244
*1757 FILLER_21_256
*1758 FILLER_21_268
*1759 FILLER_21_277
*1760 FILLER_21_281
*1761 FILLER_21_29
*1762 FILLER_21_291
*1763 FILLER_21_3
*1764 FILLER_21_35
*1765 FILLER_21_52
*1766 FILLER_21_57
*1767 FILLER_21_62
*1768 FILLER_21_74
*1769 FILLER_21_95
*1770 FILLER_22_107
*1771 FILLER_22_115
*1772 FILLER_22_132
*1773 FILLER_22_141
*1774 FILLER_22_151
*1775 FILLER_22_161
*1776 FILLER_22_174
*1777 FILLER_22_194
*1778 FILLER_22_197
*1779 FILLER_22_219
*1780 FILLER_22_231
*1781 FILLER_22_235
*1782 FILLER_22_242
*1783 FILLER_22_246
*1784 FILLER_22_250
*1785 FILLER_22_253
*1786 FILLER_22_26
*1787 FILLER_22_261
*1788 FILLER_22_265
*1789 FILLER_22_273
*1790 FILLER_22_282
*1791 FILLER_22_29
*1792 FILLER_22_295
*1793 FILLER_22_3
*1794 FILLER_22_39
*1795 FILLER_22_47
*1796 FILLER_22_55
*1797 FILLER_22_68
*1798 FILLER_22_82
*1799 FILLER_22_85
*1800 FILLER_22_9
*1801 FILLER_23_110
*1802 FILLER_23_113
*1803 FILLER_23_123
*1804 FILLER_23_146
*1805 FILLER_23_158
*1806 FILLER_23_162
*1807 FILLER_23_166
*1808 FILLER_23_169
*1809 FILLER_23_180
*1810 FILLER_23_189
*1811 FILLER_23_196
*1812 FILLER_23_202
*1813 FILLER_23_21
*1814 FILLER_23_210
*1815 FILLER_23_222
*1816 FILLER_23_225
*1817 FILLER_23_232
*1818 FILLER_23_250
*1819 FILLER_23_261
*1820 FILLER_23_268
*1821 FILLER_23_278
*1822 FILLER_23_281
*1823 FILLER_23_290
*1824 FILLER_23_297
*1825 FILLER_23_3
*1826 FILLER_23_34
*1827 FILLER_23_43
*1828 FILLER_23_54
*1829 FILLER_23_57
*1830 FILLER_23_66
*1831 FILLER_23_73
*1832 FILLER_23_85
*1833 FILLER_23_91