*SPEF "ieee 1481-1999"
*DESIGN "MichaelBell_hovalaag"
*DATE "11:11:11 Fri 11 11, 1111"
*VENDOR "OpenRCX"
*PROGRAM "Parallel Extraction"
*VERSION "1.0"
*DESIGN_FLOW "NAME_SCOPE LOCAL" "PIN_CAP NONE"
*DIVIDER /
*DELIMITER :
*BUS_DELIMITER []
*T_UNIT 1 NS
*C_UNIT 1 PF
*R_UNIT 1 OHM
*L_UNIT 1 HENRY

*NAME_MAP
*1 io_in[0]
*2 io_in[1]
*3 io_in[2]
*4 io_in[3]
*5 io_in[4]
*6 io_in[5]
*7 io_in[6]
*8 io_in[7]
*9 io_out[0]
*10 io_out[1]
*11 io_out[2]
*12 io_out[3]
*13 io_out[4]
*14 io_out[5]
*15 io_out[6]
*16 io_out[7]
*19 _0000_
*20 _0001_
*21 _0002_
*22 _0003_
*23 _0004_
*24 _0005_
*25 _0006_
*26 _0007_
*27 _0008_
*28 _0009_
*29 _0010_
*30 _0011_
*31 _0012_
*32 _0013_
*33 _0014_
*34 _0015_
*35 _0016_
*36 _0017_
*37 _0018_
*38 _0019_
*39 _0020_
*40 _0021_
*41 _0022_
*42 _0023_
*43 _0024_
*44 _0025_
*45 _0026_
*46 _0027_
*47 _0028_
*48 _0029_
*49 _0030_
*50 _0031_
*51 _0032_
*52 _0033_
*53 _0034_
*54 _0035_
*55 _0036_
*56 _0037_
*57 _0038_
*58 _0039_
*59 _0040_
*60 _0041_
*61 _0042_
*62 _0043_
*63 _0044_
*64 _0045_
*65 _0046_
*66 _0047_
*67 _0048_
*68 _0049_
*69 _0050_
*70 _0051_
*71 _0052_
*72 _0053_
*73 _0054_
*74 _0055_
*75 _0056_
*76 _0057_
*77 _0058_
*78 _0059_
*79 _0060_
*80 _0061_
*81 _0062_
*82 _0063_
*83 _0064_
*84 _0065_
*85 _0066_
*86 _0067_
*87 _0068_
*88 _0069_
*89 _0070_
*90 _0071_
*91 _0072_
*92 _0073_
*93 _0074_
*94 _0075_
*95 _0076_
*96 _0077_
*97 _0078_
*98 _0079_
*99 _0080_
*100 _0081_
*101 _0082_
*102 _0083_
*103 _0084_
*104 _0085_
*105 _0086_
*106 _0087_
*107 _0088_
*108 _0089_
*109 _0090_
*110 _0091_
*111 _0092_
*112 _0093_
*113 _0094_
*114 _0095_
*115 _0096_
*116 _0097_
*117 _0098_
*118 _0099_
*119 _0100_
*120 _0101_
*121 _0102_
*122 _0103_
*123 _0104_
*124 _0105_
*125 _0106_
*126 _0107_
*127 _0108_
*128 _0109_
*129 _0110_
*130 _0111_
*131 _0112_
*132 _0113_
*133 _0114_
*134 _0115_
*135 _0116_
*136 _0117_
*137 _0118_
*138 _0119_
*139 _0120_
*140 _0121_
*141 _0122_
*142 _0123_
*143 _0124_
*144 _0125_
*145 _0126_
*146 _0127_
*147 _0128_
*148 _0129_
*149 _0130_
*150 _0131_
*151 _0132_
*152 _0133_
*153 _0134_
*154 _0135_
*155 _0136_
*156 _0137_
*157 _0138_
*158 _0139_
*159 _0140_
*160 _0141_
*161 _0142_
*162 _0143_
*163 _0144_
*164 _0145_
*165 _0146_
*166 _0147_
*167 _0148_
*168 _0149_
*169 _0150_
*170 _0151_
*171 _0152_
*172 _0153_
*173 _0154_
*174 _0155_
*175 _0156_
*176 _0157_
*177 _0158_
*178 _0159_
*179 _0160_
*180 _0161_
*181 _0162_
*182 _0163_
*183 _0164_
*184 _0165_
*185 _0166_
*186 _0167_
*187 _0168_
*188 _0169_
*189 _0170_
*190 _0171_
*191 _0172_
*192 _0173_
*193 _0174_
*194 _0175_
*195 _0176_
*196 _0177_
*197 _0178_
*198 _0179_
*199 _0180_
*200 _0181_
*201 _0182_
*202 _0183_
*203 _0184_
*204 _0185_
*205 _0186_
*206 _0187_
*207 _0188_
*208 _0189_
*209 _0190_
*210 _0191_
*211 _0192_
*212 _0193_
*213 _0194_
*214 _0195_
*215 _0196_
*216 _0197_
*217 _0198_
*218 _0199_
*219 _0200_
*220 _0201_
*221 _0202_
*222 _0203_
*223 _0204_
*224 _0205_
*225 _0206_
*226 _0207_
*227 _0208_
*228 _0209_
*229 _0210_
*230 _0211_
*231 _0212_
*232 _0213_
*233 _0214_
*234 _0215_
*235 _0216_
*236 _0217_
*237 _0218_
*238 _0219_
*239 _0220_
*240 _0221_
*241 _0222_
*242 _0223_
*243 _0224_
*244 _0225_
*245 _0226_
*246 _0227_
*247 _0228_
*248 _0229_
*249 _0230_
*250 _0231_
*251 _0232_
*252 _0233_
*253 _0234_
*254 _0235_
*255 _0236_
*256 _0237_
*257 _0238_
*258 _0239_
*259 _0240_
*260 _0241_
*261 _0242_
*262 _0243_
*263 _0244_
*264 _0245_
*265 _0246_
*266 _0247_
*267 _0248_
*268 _0249_
*269 _0250_
*270 _0251_
*271 _0252_
*272 _0253_
*273 _0254_
*274 _0255_
*275 _0256_
*276 _0257_
*277 _0258_
*278 _0259_
*279 _0260_
*280 _0261_
*281 _0262_
*282 _0263_
*283 _0264_
*284 _0265_
*285 _0266_
*286 _0267_
*287 _0268_
*288 _0269_
*289 _0270_
*290 _0271_
*291 _0272_
*292 _0273_
*293 _0274_
*294 _0275_
*295 _0276_
*296 _0277_
*297 _0278_
*298 _0279_
*299 _0280_
*300 _0281_
*301 _0282_
*302 _0283_
*303 _0284_
*304 _0285_
*305 _0286_
*306 _0287_
*307 _0288_
*308 _0289_
*309 _0290_
*310 _0291_
*311 _0292_
*312 _0293_
*313 _0294_
*314 _0295_
*315 _0296_
*316 _0297_
*317 _0298_
*318 _0299_
*319 _0300_
*320 _0301_
*321 _0302_
*322 _0303_
*323 _0304_
*324 _0305_
*325 _0306_
*326 _0307_
*327 _0308_
*328 _0309_
*329 _0310_
*330 _0311_
*331 _0312_
*332 _0313_
*333 _0314_
*334 _0315_
*335 _0316_
*336 _0317_
*337 _0318_
*338 _0319_
*339 _0320_
*340 _0321_
*341 _0322_
*342 _0323_
*343 _0324_
*344 _0325_
*345 _0326_
*346 _0327_
*347 _0328_
*348 _0329_
*349 _0330_
*350 _0331_
*351 _0332_
*352 _0333_
*353 _0334_
*354 _0335_
*355 _0336_
*356 _0337_
*357 _0338_
*358 _0339_
*359 _0340_
*360 _0341_
*361 _0342_
*362 _0343_
*363 _0344_
*364 _0345_
*365 _0346_
*366 _0347_
*367 _0348_
*368 _0349_
*369 _0350_
*370 _0351_
*371 _0352_
*372 _0353_
*373 _0354_
*374 _0355_
*375 _0356_
*376 _0357_
*377 _0358_
*378 _0359_
*379 _0360_
*380 _0361_
*381 _0362_
*382 _0363_
*383 _0364_
*384 _0365_
*385 _0366_
*386 _0367_
*387 _0368_
*388 _0369_
*389 _0370_
*390 _0371_
*391 _0372_
*392 _0373_
*393 _0374_
*394 _0375_
*395 _0376_
*396 _0377_
*397 _0378_
*398 _0379_
*399 _0380_
*400 _0381_
*401 _0382_
*402 _0383_
*403 _0384_
*404 _0385_
*405 _0386_
*406 _0387_
*407 _0388_
*408 _0389_
*409 _0390_
*410 _0391_
*411 _0392_
*412 _0393_
*413 _0394_
*414 _0395_
*415 _0396_
*416 _0397_
*417 _0398_
*418 _0399_
*419 _0400_
*420 _0401_
*421 _0402_
*422 _0403_
*423 _0404_
*424 _0405_
*425 _0406_
*426 _0407_
*427 _0408_
*428 _0409_
*429 _0410_
*430 _0411_
*431 _0412_
*432 _0413_
*433 _0414_
*434 _0415_
*435 _0416_
*436 _0417_
*437 _0418_
*438 _0419_
*439 _0420_
*440 _0421_
*441 _0422_
*442 _0423_
*443 _0424_
*444 _0425_
*445 _0426_
*446 _0427_
*447 _0428_
*448 _0429_
*449 _0430_
*450 _0431_
*451 _0432_
*452 _0433_
*453 _0434_
*454 _0435_
*455 _0436_
*456 _0437_
*457 _0438_
*458 _0439_
*459 _0440_
*460 _0441_
*461 _0442_
*462 _0443_
*463 _0444_
*464 _0445_
*465 _0446_
*466 _0447_
*467 _0448_
*468 _0449_
*469 _0450_
*470 _0451_
*471 _0452_
*472 _0453_
*473 _0454_
*474 _0455_
*475 _0456_
*476 _0457_
*477 _0458_
*478 _0459_
*479 _0460_
*480 _0461_
*481 _0462_
*482 _0463_
*483 _0464_
*484 _0465_
*485 _0466_
*486 _0467_
*487 _0468_
*488 _0469_
*489 _0470_
*490 _0471_
*491 _0472_
*492 _0473_
*493 _0474_
*494 _0475_
*495 _0476_
*496 _0477_
*497 _0478_
*498 _0479_
*499 _0480_
*500 _0481_
*501 _0482_
*502 _0483_
*503 _0484_
*504 _0485_
*505 _0486_
*506 _0487_
*507 _0488_
*508 _0489_
*509 _0490_
*510 _0491_
*511 _0492_
*512 _0493_
*513 _0494_
*514 _0495_
*515 _0496_
*516 _0497_
*517 _0498_
*518 _0499_
*519 _0500_
*520 _0501_
*521 _0502_
*522 _0503_
*523 _0504_
*524 _0505_
*525 _0506_
*526 _0507_
*527 _0508_
*528 _0509_
*529 _0510_
*530 _0511_
*531 _0512_
*532 _0513_
*533 _0514_
*534 _0515_
*535 _0516_
*536 _0517_
*537 _0518_
*538 _0519_
*539 _0520_
*540 _0521_
*541 _0522_
*542 _0523_
*543 _0524_
*544 _0525_
*545 _0526_
*546 _0527_
*547 _0528_
*548 _0529_
*549 _0530_
*550 _0531_
*551 _0532_
*552 _0533_
*553 _0534_
*554 _0535_
*555 _0536_
*556 _0537_
*557 _0538_
*558 _0539_
*559 _0540_
*560 _0541_
*561 _0542_
*562 _0543_
*563 _0544_
*564 _0545_
*565 _0546_
*566 _0547_
*567 _0548_
*568 _0549_
*569 _0550_
*570 _0551_
*571 _0552_
*572 _0553_
*573 _0554_
*574 _0555_
*575 _0556_
*576 _0557_
*577 _0558_
*578 _0559_
*579 _0560_
*580 _0561_
*581 _0562_
*582 _0563_
*583 _0564_
*584 _0565_
*585 _0566_
*586 _0567_
*587 _0568_
*588 _0569_
*589 _0570_
*590 _0571_
*591 _0572_
*592 _0573_
*593 _0574_
*594 _0575_
*595 _0576_
*596 _0577_
*597 _0578_
*598 _0579_
*599 _0580_
*600 _0581_
*601 _0582_
*602 _0583_
*603 _0584_
*604 _0585_
*605 _0586_
*606 _0587_
*607 _0588_
*608 _0589_
*609 _0590_
*610 _0591_
*611 _0592_
*612 _0593_
*613 _0594_
*614 _0595_
*615 _0596_
*616 _0597_
*617 _0598_
*618 _0599_
*619 _0600_
*620 _0601_
*621 _0602_
*622 _0603_
*623 _0604_
*624 _0605_
*625 _0606_
*626 _0607_
*627 _0608_
*628 _0609_
*629 _0610_
*630 _0611_
*631 _0612_
*632 _0613_
*633 _0614_
*634 _0615_
*635 _0616_
*636 _0617_
*637 _0618_
*638 _0619_
*639 _0620_
*640 _0621_
*641 _0622_
*642 _0623_
*643 _0624_
*644 _0625_
*645 _0626_
*646 _0627_
*647 _0628_
*648 _0629_
*649 _0630_
*650 _0631_
*651 _0632_
*652 _0633_
*653 _0634_
*654 _0635_
*655 _0636_
*656 _0637_
*657 _0638_
*658 _0639_
*659 _0640_
*660 _0641_
*661 _0642_
*662 _0643_
*663 _0644_
*664 _0645_
*665 _0646_
*666 _0647_
*667 _0648_
*668 _0649_
*669 _0650_
*670 _0651_
*671 _0652_
*672 _0653_
*673 _0654_
*674 _0655_
*675 _0656_
*676 _0657_
*677 _0658_
*678 _0659_
*679 _0660_
*680 _0661_
*681 _0662_
*682 _0663_
*683 _0664_
*684 _0665_
*685 _0666_
*686 _0667_
*687 _0668_
*688 _0669_
*689 _0670_
*690 _0671_
*691 _0672_
*692 _0673_
*693 _0674_
*694 _0675_
*695 _0676_
*696 _0677_
*697 _0678_
*698 _0679_
*699 _0680_
*700 _0681_
*701 _0682_
*702 _0683_
*703 _0684_
*704 _0685_
*705 _0686_
*706 _0687_
*707 _0688_
*708 _0689_
*709 _0690_
*710 _0691_
*711 _0692_
*712 _0693_
*713 _0694_
*714 _0695_
*715 _0696_
*716 _0697_
*717 _0698_
*718 _0699_
*719 _0700_
*720 _0701_
*721 _0702_
*722 _0703_
*723 _0704_
*724 _0705_
*725 _0706_
*726 _0707_
*727 _0708_
*728 _0709_
*729 _0710_
*730 _0711_
*731 _0712_
*732 _0713_
*733 _0714_
*734 _0715_
*735 _0716_
*736 _0717_
*737 _0718_
*738 _0719_
*739 _0720_
*740 _0721_
*741 _0722_
*742 _0723_
*743 _0724_
*744 _0725_
*745 _0726_
*746 _0727_
*747 _0728_
*748 _0729_
*749 _0730_
*750 _0731_
*751 _0732_
*752 _0733_
*753 _0734_
*754 _0735_
*755 _0736_
*756 _0737_
*757 _0738_
*758 _0739_
*759 _0740_
*760 _0741_
*761 _0742_
*762 _0743_
*763 _0744_
*764 _0745_
*765 _0746_
*766 _0747_
*767 _0748_
*768 _0749_
*769 _0750_
*770 _0751_
*771 _0752_
*772 _0753_
*773 _0754_
*774 _0755_
*775 _0756_
*776 _0757_
*777 _0758_
*778 _0759_
*779 _0760_
*780 _0761_
*781 _0762_
*782 _0763_
*783 _0764_
*784 _0765_
*785 _0766_
*786 _0767_
*787 _0768_
*788 _0769_
*789 _0770_
*790 _0771_
*791 _0772_
*792 _0773_
*793 _0774_
*794 _0775_
*795 _0776_
*796 _0777_
*797 _0778_
*798 _0779_
*799 _0780_
*800 _0781_
*801 _0782_
*802 _0783_
*803 _0784_
*804 _0785_
*805 _0786_
*806 _0787_
*807 _0788_
*808 _0789_
*809 _0790_
*810 _0791_
*811 _0792_
*812 _0793_
*813 _0794_
*814 _0795_
*815 _0796_
*816 _0797_
*817 _0798_
*818 _0799_
*819 _0800_
*820 _0801_
*821 _0802_
*822 _0803_
*823 _0804_
*824 _0805_
*825 _0806_
*826 _0807_
*827 _0808_
*828 _0809_
*829 _0810_
*830 _0811_
*831 _0812_
*832 _0813_
*833 _0814_
*834 _0815_
*835 _0816_
*836 _0817_
*837 _0818_
*838 _0819_
*839 _0820_
*840 _0821_
*841 _0822_
*842 _0823_
*843 _0824_
*844 _0825_
*845 _0826_
*846 _0827_
*847 _0828_
*848 _0829_
*849 _0830_
*850 _0831_
*851 _0832_
*852 _0833_
*853 _0834_
*854 _0835_
*855 _0836_
*856 _0837_
*857 _0838_
*858 _0839_
*859 _0840_
*860 _0841_
*861 _0842_
*862 _0843_
*863 _0844_
*864 _0845_
*865 _0846_
*866 _0847_
*867 _0848_
*868 _0849_
*869 _0850_
*870 _0851_
*871 _0852_
*872 _0853_
*873 _0854_
*874 _0855_
*875 _0856_
*876 _0857_
*877 _0858_
*878 _0859_
*879 _0860_
*880 _0861_
*881 _0862_
*882 _0863_
*883 _0864_
*884 _0865_
*885 _0866_
*886 _0867_
*887 _0868_
*888 _0869_
*889 _0870_
*890 _0871_
*891 _0872_
*892 _0873_
*893 _0874_
*894 _0875_
*895 _0876_
*896 _0877_
*897 _0878_
*898 _0879_
*899 _0880_
*900 _0881_
*901 _0882_
*902 _0883_
*903 _0884_
*904 _0885_
*905 _0886_
*906 _0887_
*907 _0888_
*908 _0889_
*909 _0890_
*910 _0891_
*911 _0892_
*912 _0893_
*913 _0894_
*914 _0895_
*915 _0896_
*916 _0897_
*917 _0898_
*918 _0899_
*919 _0900_
*920 _0901_
*921 _0902_
*922 _0903_
*923 _0904_
*924 _0905_
*925 _0906_
*926 _0907_
*927 _0908_
*928 _0909_
*929 _0910_
*930 _0911_
*931 _0912_
*932 _0913_
*933 _0914_
*934 _0915_
*935 _0916_
*936 _0917_
*937 _0918_
*938 _0919_
*939 _0920_
*940 _0921_
*941 _0922_
*942 _0923_
*943 _0924_
*944 _0925_
*945 _0926_
*946 _0927_
*947 _0928_
*948 _0929_
*949 _0930_
*950 _0931_
*951 _0932_
*952 _0933_
*953 _0934_
*954 _0935_
*955 _0936_
*956 _0937_
*957 _0938_
*958 _0939_
*959 _0940_
*960 _0941_
*961 _0942_
*962 _0943_
*963 _0944_
*964 _0945_
*965 _0946_
*966 _0947_
*967 _0948_
*968 _0949_
*969 _0950_
*970 _0951_
*971 _0952_
*972 _0953_
*973 _0954_
*974 _0955_
*975 _0956_
*976 _0957_
*977 _0958_
*978 _0959_
*979 _0960_
*980 _0961_
*981 _0962_
*982 _0963_
*983 _0964_
*984 _0965_
*985 _0966_
*986 _0967_
*987 _0968_
*988 _0969_
*989 _0970_
*990 _0971_
*991 _0972_
*992 _0973_
*993 _0974_
*994 _0975_
*995 _0976_
*996 _0977_
*997 _0978_
*998 _0979_
*999 _0980_
*1000 _0981_
*1001 _0982_
*1002 _0983_
*1003 _0984_
*1004 _0985_
*1005 _0986_
*1006 _0987_
*1007 _0988_
*1008 _0989_
*1009 _0990_
*1010 _0991_
*1011 _0992_
*1012 _0993_
*1013 _0994_
*1014 _0995_
*1015 _0996_
*1016 _0997_
*1017 _0998_
*1018 _0999_
*1019 _1000_
*1020 _1001_
*1021 _1002_
*1022 _1003_
*1023 _1004_
*1024 _1005_
*1025 _1006_
*1026 _1007_
*1027 _1008_
*1028 _1009_
*1029 _1010_
*1030 _1011_
*1031 _1012_
*1032 _1013_
*1033 _1014_
*1034 _1015_
*1035 _1016_
*1036 _1017_
*1037 clknet_0_io_in[0]
*1038 clknet_4_0_0_io_in[0]
*1039 clknet_4_10_0_io_in[0]
*1040 clknet_4_11_0_io_in[0]
*1041 clknet_4_12_0_io_in[0]
*1042 clknet_4_13_0_io_in[0]
*1043 clknet_4_14_0_io_in[0]
*1044 clknet_4_15_0_io_in[0]
*1045 clknet_4_1_0_io_in[0]
*1046 clknet_4_2_0_io_in[0]
*1047 clknet_4_3_0_io_in[0]
*1048 clknet_4_4_0_io_in[0]
*1049 clknet_4_5_0_io_in[0]
*1050 clknet_4_6_0_io_in[0]
*1051 clknet_4_7_0_io_in[0]
*1052 clknet_4_8_0_io_in[0]
*1053 clknet_4_9_0_io_in[0]
*1054 net1
*1055 net10
*1056 net11
*1057 net12
*1058 net2
*1059 net3
*1060 net4
*1061 net5
*1062 net6
*1063 net7
*1064 net8
*1065 net9
*1066 next_addr\[0\]
*1067 next_addr\[1\]
*1068 next_addr\[2\]
*1069 next_addr\[3\]
*1070 wrapper\.addr\[0\]
*1071 wrapper\.addr\[1\]
*1072 wrapper\.addr\[2\]
*1073 wrapper\.addr\[3\]
*1074 wrapper\.buffered_fast_count\[0\]
*1075 wrapper\.buffered_fast_count\[1\]
*1076 wrapper\.buffered_fast_count\[2\]
*1077 wrapper\.fast_count\[0\]
*1078 wrapper\.fast_count\[1\]
*1079 wrapper\.fast_count\[2\]
*1080 wrapper\.hov\.A\[0\]
*1081 wrapper\.hov\.A\[10\]
*1082 wrapper\.hov\.A\[11\]
*1083 wrapper\.hov\.A\[1\]
*1084 wrapper\.hov\.A\[2\]
*1085 wrapper\.hov\.A\[3\]
*1086 wrapper\.hov\.A\[4\]
*1087 wrapper\.hov\.A\[5\]
*1088 wrapper\.hov\.A\[6\]
*1089 wrapper\.hov\.A\[7\]
*1090 wrapper\.hov\.A\[8\]
*1091 wrapper\.hov\.A\[9\]
*1092 wrapper\.hov\.A_op\[0\]
*1093 wrapper\.hov\.A_op\[1\]
*1094 wrapper\.hov\.B\[0\]
*1095 wrapper\.hov\.B\[10\]
*1096 wrapper\.hov\.B\[11\]
*1097 wrapper\.hov\.B\[1\]
*1098 wrapper\.hov\.B\[2\]
*1099 wrapper\.hov\.B\[3\]
*1100 wrapper\.hov\.B\[4\]
*1101 wrapper\.hov\.B\[5\]
*1102 wrapper\.hov\.B\[6\]
*1103 wrapper\.hov\.B\[7\]
*1104 wrapper\.hov\.B\[8\]
*1105 wrapper\.hov\.B\[9\]
*1106 wrapper\.hov\.B_op\[0\]
*1107 wrapper\.hov\.B_op\[1\]
*1108 wrapper\.hov\.C\[0\]
*1109 wrapper\.hov\.C\[10\]
*1110 wrapper\.hov\.C\[11\]
*1111 wrapper\.hov\.C\[1\]
*1112 wrapper\.hov\.C\[2\]
*1113 wrapper\.hov\.C\[3\]
*1114 wrapper\.hov\.C\[4\]
*1115 wrapper\.hov\.C\[5\]
*1116 wrapper\.hov\.C\[6\]
*1117 wrapper\.hov\.C\[7\]
*1118 wrapper\.hov\.C\[8\]
*1119 wrapper\.hov\.C\[9\]
*1120 wrapper\.hov\.C_op\[0\]
*1121 wrapper\.hov\.C_op\[1\]
*1122 wrapper\.hov\.D\[0\]
*1123 wrapper\.hov\.D\[10\]
*1124 wrapper\.hov\.D\[11\]
*1125 wrapper\.hov\.D\[1\]
*1126 wrapper\.hov\.D\[2\]
*1127 wrapper\.hov\.D\[3\]
*1128 wrapper\.hov\.D\[4\]
*1129 wrapper\.hov\.D\[5\]
*1130 wrapper\.hov\.D\[6\]
*1131 wrapper\.hov\.D\[7\]
*1132 wrapper\.hov\.D\[8\]
*1133 wrapper\.hov\.D\[9\]
*1134 wrapper\.hov\.D_op
*1135 wrapper\.hov\.F
*1136 wrapper\.hov\.F_op\[0\]
*1137 wrapper\.hov\.F_op\[1\]
*1138 wrapper\.hov\.IN1\[0\]
*1139 wrapper\.hov\.IN1\[10\]
*1140 wrapper\.hov\.IN1\[11\]
*1141 wrapper\.hov\.IN1\[1\]
*1142 wrapper\.hov\.IN1\[2\]
*1143 wrapper\.hov\.IN1\[3\]
*1144 wrapper\.hov\.IN1\[4\]
*1145 wrapper\.hov\.IN1\[5\]
*1146 wrapper\.hov\.IN1\[6\]
*1147 wrapper\.hov\.IN1\[7\]
*1148 wrapper\.hov\.IN1\[8\]
*1149 wrapper\.hov\.IN1\[9\]
*1150 wrapper\.hov\.IN2\[0\]
*1151 wrapper\.hov\.IN2\[10\]
*1152 wrapper\.hov\.IN2\[11\]
*1153 wrapper\.hov\.IN2\[1\]
*1154 wrapper\.hov\.IN2\[2\]
*1155 wrapper\.hov\.IN2\[3\]
*1156 wrapper\.hov\.IN2\[4\]
*1157 wrapper\.hov\.IN2\[5\]
*1158 wrapper\.hov\.IN2\[6\]
*1159 wrapper\.hov\.IN2\[7\]
*1160 wrapper\.hov\.IN2\[8\]
*1161 wrapper\.hov\.IN2\[9\]
*1162 wrapper\.hov\.IO_select
*1163 wrapper\.hov\.K\[11\]
*1164 wrapper\.hov\.L\[0\]
*1165 wrapper\.hov\.L\[1\]
*1166 wrapper\.hov\.L\[2\]
*1167 wrapper\.hov\.L\[3\]
*1168 wrapper\.hov\.L\[4\]
*1169 wrapper\.hov\.L\[5\]
*1170 wrapper\.hov\.OUT\[0\]
*1171 wrapper\.hov\.OUT\[10\]
*1172 wrapper\.hov\.OUT\[11\]
*1173 wrapper\.hov\.OUT\[1\]
*1174 wrapper\.hov\.OUT\[2\]
*1175 wrapper\.hov\.OUT\[3\]
*1176 wrapper\.hov\.OUT\[4\]
*1177 wrapper\.hov\.OUT\[5\]
*1178 wrapper\.hov\.OUT\[6\]
*1179 wrapper\.hov\.OUT\[7\]
*1180 wrapper\.hov\.OUT\[8\]
*1181 wrapper\.hov\.OUT\[9\]
*1182 wrapper\.hov\.PC\[0\]
*1183 wrapper\.hov\.PC\[1\]
*1184 wrapper\.hov\.PC\[2\]
*1185 wrapper\.hov\.PC\[3\]
*1186 wrapper\.hov\.PC\[4\]
*1187 wrapper\.hov\.PC\[5\]
*1188 wrapper\.hov\.PC\[6\]
*1189 wrapper\.hov\.PC\[7\]
*1190 wrapper\.hov\.PC_op\[0\]
*1191 wrapper\.hov\.PC_op\[1\]
*1192 wrapper\.hov\.W\[0\]
*1193 wrapper\.hov\.W\[10\]
*1194 wrapper\.hov\.W\[11\]
*1195 wrapper\.hov\.W\[1\]
*1196 wrapper\.hov\.W\[2\]
*1197 wrapper\.hov\.W\[3\]
*1198 wrapper\.hov\.W\[4\]
*1199 wrapper\.hov\.W\[5\]
*1200 wrapper\.hov\.W\[6\]
*1201 wrapper\.hov\.W\[7\]
*1202 wrapper\.hov\.W\[8\]
*1203 wrapper\.hov\.W\[9\]
*1204 wrapper\.hov\.W_op\[0\]
*1205 wrapper\.hov\.W_op\[1\]
*1206 wrapper\.hov\.alu_op\[0\]
*1207 wrapper\.hov\.alu_op\[1\]
*1208 wrapper\.hov\.alu_op_14_source\[0\]
*1209 wrapper\.hov\.alu_op_14_source\[10\]
*1210 wrapper\.hov\.alu_op_14_source\[11\]
*1211 wrapper\.hov\.alu_op_14_source\[1\]
*1212 wrapper\.hov\.alu_op_14_source\[2\]
*1213 wrapper\.hov\.alu_op_14_source\[3\]
*1214 wrapper\.hov\.alu_op_14_source\[4\]
*1215 wrapper\.hov\.alu_op_14_source\[5\]
*1216 wrapper\.hov\.alu_op_14_source\[6\]
*1217 wrapper\.hov\.alu_op_14_source\[7\]
*1218 wrapper\.hov\.alu_op_14_source\[8\]
*1219 wrapper\.hov\.alu_op_14_source\[9\]
*1220 wrapper\.hov\.instr\[10\]
*1221 wrapper\.hov\.instr\[12\]
*1222 wrapper\.hov\.instr\[14\]
*1223 wrapper\.hov\.instr\[6\]
*1224 wrapper\.hov\.instr\[7\]
*1225 wrapper\.hov\.instr\[8\]
*1226 wrapper\.hov\.instr\[9\]
*1227 wrapper\.reset_n
*1228 wrapper\.reset_rosc_n
*1229 wrapper\.rosc\.c\[0\]
*1230 wrapper\.rosc\.c\[10\]
*1231 wrapper\.rosc\.c\[1\]
*1232 wrapper\.rosc\.c\[2\]
*1233 wrapper\.rosc\.c\[3\]
*1234 wrapper\.rosc\.c\[4\]
*1235 wrapper\.rosc\.c\[5\]
*1236 wrapper\.rosc\.c\[6\]
*1237 wrapper\.rosc\.c\[7\]
*1238 wrapper\.rosc\.c\[8\]
*1239 wrapper\.rosc\.c\[9\]
*1240 wrapper\.rosc\.clk_div\[0\]
*1241 wrapper\.rosc\.pause
*1242 wrapper\.seg7\.seg_out\[0\]
*1243 wrapper\.seg7\.seg_out\[1\]
*1244 wrapper\.seg7\.seg_out\[2\]
*1245 wrapper\.seg7\.seg_out\[3\]
*1246 wrapper\.seg7\.seg_out\[4\]
*1247 wrapper\.seg7\.seg_out\[5\]
*1248 wrapper\.seg7\.seg_out\[6\]
*1249 ANTENNA_1
*1250 ANTENNA_2
*1251 ANTENNA_3
*1252 FILLER_0_103
*1253 FILLER_0_110
*1254 FILLER_0_113
*1255 FILLER_0_117
*1256 FILLER_0_124
*1257 FILLER_0_131
*1258 FILLER_0_138
*1259 FILLER_0_141
*1260 FILLER_0_147
*1261 FILLER_0_152
*1262 FILLER_0_160
*1263 FILLER_0_166
*1264 FILLER_0_169
*1265 FILLER_0_176
*1266 FILLER_0_183
*1267 FILLER_0_190
*1268 FILLER_0_197
*1269 FILLER_0_208
*1270 FILLER_0_21
*1271 FILLER_0_215
*1272 FILLER_0_222
*1273 FILLER_0_225
*1274 FILLER_0_236
*1275 FILLER_0_249
*1276 FILLER_0_25
*1277 FILLER_0_253
*1278 FILLER_0_258
*1279 FILLER_0_265
*1280 FILLER_0_272
*1281 FILLER_0_281
*1282 FILLER_0_286
*1283 FILLER_0_29
*1284 FILLER_0_293
*1285 FILLER_0_3
*1286 FILLER_0_35
*1287 FILLER_0_43
*1288 FILLER_0_54
*1289 FILLER_0_57
*1290 FILLER_0_81
*1291 FILLER_0_85
*1292 FILLER_0_91
*1293 FILLER_0_99
*1294 FILLER_10_100
*1295 FILLER_10_118
*1296 FILLER_10_127
*1297 FILLER_10_133
*1298 FILLER_10_138
*1299 FILLER_10_141
*1300 FILLER_10_15
*1301 FILLER_10_150
*1302 FILLER_10_171
*1303 FILLER_10_193
*1304 FILLER_10_197
*1305 FILLER_10_205
*1306 FILLER_10_218
*1307 FILLER_10_226
*1308 FILLER_10_230
*1309 FILLER_10_250
*1310 FILLER_10_253
*1311 FILLER_10_258
*1312 FILLER_10_26
*1313 FILLER_10_270
*1314 FILLER_10_282
*1315 FILLER_10_29
*1316 FILLER_10_293
*1317 FILLER_10_3
*1318 FILLER_10_38
*1319 FILLER_10_50
*1320 FILLER_10_60
*1321 FILLER_10_73
*1322 FILLER_10_82
*1323 FILLER_10_85
*1324 FILLER_10_96
*1325 FILLER_11_106
*1326 FILLER_11_113
*1327 FILLER_11_12
*1328 FILLER_11_135
*1329 FILLER_11_147
*1330 FILLER_11_155
*1331 FILLER_11_159
*1332 FILLER_11_166
*1333 FILLER_11_169
*1334 FILLER_11_177
*1335 FILLER_11_185
*1336 FILLER_11_205
*1337 FILLER_11_212
*1338 FILLER_11_222
*1339 FILLER_11_225
*1340 FILLER_11_241
*1341 FILLER_11_249
*1342 FILLER_11_256
*1343 FILLER_11_267
*1344 FILLER_11_276
*1345 FILLER_11_281
*1346 FILLER_11_291
*1347 FILLER_11_3
*1348 FILLER_11_36
*1349 FILLER_11_42
*1350 FILLER_11_51
*1351 FILLER_11_55
*1352 FILLER_11_57
*1353 FILLER_11_62
*1354 FILLER_11_75
*1355 FILLER_11_82
*1356 FILLER_11_94
*1357 FILLER_12_105
*1358 FILLER_12_111
*1359 FILLER_12_120
*1360 FILLER_12_129
*1361 FILLER_12_133
*1362 FILLER_12_138
*1363 FILLER_12_141
*1364 FILLER_12_158
*1365 FILLER_12_166
*1366 FILLER_12_178
*1367 FILLER_12_188
*1368 FILLER_12_197
*1369 FILLER_12_201
*1370 FILLER_12_21
*1371 FILLER_12_212
*1372 FILLER_12_220
*1373 FILLER_12_231
*1374 FILLER_12_239
*1375 FILLER_12_243
*1376 FILLER_12_250
*1377 FILLER_12_253
*1378 FILLER_12_261
*1379 FILLER_12_27
*1380 FILLER_12_271
*1381 FILLER_12_277
*1382 FILLER_12_284
*1383 FILLER_12_29
*1384 FILLER_12_296
*1385 FILLER_12_3
*1386 FILLER_12_35
*1387 FILLER_12_41
*1388 FILLER_12_61
*1389 FILLER_12_69
*1390 FILLER_12_81
*1391 FILLER_12_85
*1392 FILLER_12_90
*1393 FILLER_13_101
*1394 FILLER_13_110
*1395 FILLER_13_113
*1396 FILLER_13_123
*1397 FILLER_13_131
*1398 FILLER_13_138
*1399 FILLER_13_150
*1400 FILLER_13_158
*1401 FILLER_13_166
*1402 FILLER_13_169
*1403 FILLER_13_177
*1404 FILLER_13_191
*1405 FILLER_13_20
*1406 FILLER_13_201
*1407 FILLER_13_214
*1408 FILLER_13_222
*1409 FILLER_13_225
*1410 FILLER_13_231
*1411 FILLER_13_244
*1412 FILLER_13_248
*1413 FILLER_13_256
*1414 FILLER_13_267
*1415 FILLER_13_278
*1416 FILLER_13_28
*1417 FILLER_13_281
*1418 FILLER_13_292
*1419 FILLER_13_298
*1420 FILLER_13_3
*1421 FILLER_13_45
*1422 FILLER_13_49
*1423 FILLER_13_54
*1424 FILLER_13_57
*1425 FILLER_13_8
*1426 FILLER_13_81
*1427 FILLER_14_111
*1428 FILLER_14_119
*1429 FILLER_14_137
*1430 FILLER_14_141
*1431 FILLER_14_151
*1432 FILLER_14_160
*1433 FILLER_14_174
*1434 FILLER_14_182
*1435 FILLER_14_194
*1436 FILLER_14_197
*1437 FILLER_14_202
*1438 FILLER_14_212
*1439 FILLER_14_224
*1440 FILLER_14_242
*1441 FILLER_14_250
*1442 FILLER_14_253
*1443 FILLER_14_26
*1444 FILLER_14_263
*1445 FILLER_14_278
*1446 FILLER_14_288
*1447 FILLER_14_29
*1448 FILLER_14_297
*1449 FILLER_14_3
*1450 FILLER_14_39
*1451 FILLER_14_45
*1452 FILLER_14_52
*1453 FILLER_14_64
*1454 FILLER_14_78
*1455 FILLER_14_85
*1456 FILLER_14_9
*1457 FILLER_14_92
*1458 FILLER_15_107
*1459 FILLER_15_111
*1460 FILLER_15_113
*1461 FILLER_15_120
*1462 FILLER_15_128
*1463 FILLER_15_136
*1464 FILLER_15_144
*1465 FILLER_15_148
*1466 FILLER_15_155
*1467 FILLER_15_163
*1468 FILLER_15_167
*1469 FILLER_15_169
*1470 FILLER_15_17
*1471 FILLER_15_176
*1472 FILLER_15_183
*1473 FILLER_15_205
*1474 FILLER_15_209
*1475 FILLER_15_220
*1476 FILLER_15_225
*1477 FILLER_15_238
*1478 FILLER_15_246
*1479 FILLER_15_251
*1480 FILLER_15_259
*1481 FILLER_15_26
*1482 FILLER_15_269
*1483 FILLER_15_277
*1484 FILLER_15_281
*1485 FILLER_15_296
*1486 FILLER_15_3
*1487 FILLER_15_30
*1488 FILLER_15_36
*1489 FILLER_15_45
*1490 FILLER_15_54
*1491 FILLER_15_57
*1492 FILLER_15_76
*1493 FILLER_15_85
*1494 FILLER_15_95
*1495 FILLER_16_107
*1496 FILLER_16_11
*1497 FILLER_16_115
*1498 FILLER_16_132
*1499 FILLER_16_141
*1500 FILLER_16_149
*1501 FILLER_16_159
*1502 FILLER_16_167
*1503 FILLER_16_174
*1504 FILLER_16_184
*1505 FILLER_16_194
*1506 FILLER_16_197
*1507 FILLER_16_201
*1508 FILLER_16_205
*1509 FILLER_16_216
*1510 FILLER_16_228
*1511 FILLER_16_239
*1512 FILLER_16_250
*1513 FILLER_16_253
*1514 FILLER_16_26
*1515 FILLER_16_260
*1516 FILLER_16_264
*1517 FILLER_16_272
*1518 FILLER_16_279
*1519 FILLER_16_29
*1520 FILLER_16_290
*1521 FILLER_16_297
*1522 FILLER_16_3
*1523 FILLER_16_53
*1524 FILLER_16_67
*1525 FILLER_16_79
*1526 FILLER_16_83
*1527 FILLER_16_85
*1528 FILLER_16_95
*1529 FILLER_17_110
*1530 FILLER_17_113
*1531 FILLER_17_123
*1532 FILLER_17_131
*1533 FILLER_17_144
*1534 FILLER_17_150
*1535 FILLER_17_159
*1536 FILLER_17_166
*1537 FILLER_17_169
*1538 FILLER_17_174
*1539 FILLER_17_184
*1540 FILLER_17_192
*1541 FILLER_17_21
*1542 FILLER_17_212
*1543 FILLER_17_222
*1544 FILLER_17_225
*1545 FILLER_17_230
*1546 FILLER_17_242
*1547 FILLER_17_246
*1548 FILLER_17_255
*1549 FILLER_17_263
*1550 FILLER_17_275
*1551 FILLER_17_279
*1552 FILLER_17_281
*1553 FILLER_17_293
*1554 FILLER_17_3
*1555 FILLER_17_30
*1556 FILLER_17_36
*1557 FILLER_17_46
*1558 FILLER_17_54
*1559 FILLER_17_57
*1560 FILLER_17_65
*1561 FILLER_17_85
*1562 FILLER_17_93
*1563 FILLER_18_100
*1564 FILLER_18_104
*1565 FILLER_18_110
*1566 FILLER_18_122
*1567 FILLER_18_131
*1568 FILLER_18_138
*1569 FILLER_18_141
*1570 FILLER_18_145
*1571 FILLER_18_152
*1572 FILLER_18_17
*1573 FILLER_18_173
*1574 FILLER_18_180
*1575 FILLER_18_185
*1576 FILLER_18_189
*1577 FILLER_18_194
*1578 FILLER_18_197
*1579 FILLER_18_203
*1580 FILLER_18_208
*1581 FILLER_18_219
*1582 FILLER_18_227
*1583 FILLER_18_237
*1584 FILLER_18_246
*1585 FILLER_18_253
*1586 FILLER_18_259
*1587 FILLER_18_26
*1588 FILLER_18_270
*1589 FILLER_18_278
*1590 FILLER_18_29
*1591 FILLER_18_293
*1592 FILLER_18_3
*1593 FILLER_18_40
*1594 FILLER_18_48
*1595 FILLER_18_57
*1596 FILLER_18_72
*1597 FILLER_18_81
*1598 FILLER_18_85
*1599 FILLER_19_105
*1600 FILLER_19_11
*1601 FILLER_19_111
*1602 FILLER_19_113
*1603 FILLER_19_133
*1604 FILLER_19_146
*1605 FILLER_19_153
*1606 FILLER_19_166
*1607 FILLER_19_169
*1608 FILLER_19_174
*1609 FILLER_19_180
*1610 FILLER_19_197
*1611 FILLER_19_217
*1612 FILLER_19_223
*1613 FILLER_19_225
*1614 FILLER_19_231
*1615 FILLER_19_238
*1616 FILLER_19_249
*1617 FILLER_19_257
*1618 FILLER_19_268
*1619 FILLER_19_277
*1620 FILLER_19_281
*1621 FILLER_19_289
*1622 FILLER_19_296
*1623 FILLER_19_3
*1624 FILLER_19_33
*1625 FILLER_19_45
*1626 FILLER_19_54
*1627 FILLER_19_57
*1628 FILLER_19_67
*1629 FILLER_19_91
*1630 FILLER_1_105
*1631 FILLER_1_110
*1632 FILLER_1_113
*1633 FILLER_1_139
*1634 FILLER_1_14
*1635 FILLER_1_165
*1636 FILLER_1_169
*1637 FILLER_1_175
*1638 FILLER_1_196
*1639 FILLER_1_204
*1640 FILLER_1_222
*1641 FILLER_1_225
*1642 FILLER_1_231
*1643 FILLER_1_248
*1644 FILLER_1_268
*1645 FILLER_1_275
*1646 FILLER_1_279
*1647 FILLER_1_281
*1648 FILLER_1_286
*1649 FILLER_1_298
*1650 FILLER_1_3
*1651 FILLER_1_34
*1652 FILLER_1_54
*1653 FILLER_1_57
*1654 FILLER_1_76
*1655 FILLER_1_80
*1656 FILLER_1_97
*1657 FILLER_20_101
*1658 FILLER_20_110
*1659 FILLER_20_122
*1660 FILLER_20_130
*1661 FILLER_20_138
*1662 FILLER_20_141
*1663 FILLER_20_147
*1664 FILLER_20_162
*1665 FILLER_20_170
*1666 FILLER_20_176
*1667 FILLER_20_193
*1668 FILLER_20_197
*1669 FILLER_20_21
*1670 FILLER_20_217
*1671 FILLER_20_229
*1672 FILLER_20_237
*1673 FILLER_20_250
*1674 FILLER_20_253
*1675 FILLER_20_257
*1676 FILLER_20_267
*1677 FILLER_20_27
*1678 FILLER_20_276
*1679 FILLER_20_29
*1680 FILLER_20_293
*1681 FILLER_20_3
*1682 FILLER_20_34
*1683 FILLER_20_45
*1684 FILLER_20_55
*1685 FILLER_20_68
*1686 FILLER_20_80
*1687 FILLER_20_85
*1688 FILLER_20_9
*1689 FILLER_20_92
*1690 FILLER_20_96
*1691 FILLER_21_110
*1692 FILLER_21_113
*1693 FILLER_21_131
*1694 FILLER_21_145
*1695 FILLER_21_158
*1696 FILLER_21_165
*1697 FILLER_21_169
*1698 FILLER_21_174
*1699 FILLER_21_189
*1700 FILLER_21_209
*1701 FILLER_21_21
*1702 FILLER_21_213
*1703 FILLER_21_222
*1704 FILLER_21_225
*1705 FILLER_21_235
*1706 FILLER_21_247
*1707 FILLER_21_258
*1708 FILLER_21_270
*1709 FILLER_21_278
*1710 FILLER_21_281
*1711 FILLER_21_288
*1712 FILLER_21_297
*1713 FILLER_21_3
*1714 FILLER_21_30
*1715 FILLER_21_39
*1716 FILLER_21_48
*1717 FILLER_21_57
*1718 FILLER_21_64
*1719 FILLER_21_77
*1720 FILLER_21_81
*1721 FILLER_21_86
*1722 FILLER_21_98
*1723 FILLER_22_107
*1724 FILLER_22_118
*1725 FILLER_22_126
*1726 FILLER_22_134
*1727 FILLER_22_141
*1728 FILLER_22_152
*1729 FILLER_22_158
*1730 FILLER_22_167
*1731 FILLER_22_191
*1732 FILLER_22_195
*1733 FILLER_22_197
*1734 FILLER_22_202
*1735 FILLER_22_21
*1736 FILLER_22_214
*1737 FILLER_22_226
*1738 FILLER_22_234
*1739 FILLER_22_246
*1740 FILLER_22_253
*1741 FILLER_22_261
*1742 FILLER_22_269
*1743 FILLER_22_27
*1744 FILLER_22_278
*1745 FILLER_22_29
*1746 FILLER_22_292
*1747 FILLER_22_298
*1748 FILLER_22_3
*1749 FILLER_22_36
*1750 FILLER_22_44
*1751 FILLER_22_52
*1752 FILLER_22_64
*1753 FILLER_22_72
*1754 FILLER_22_8
*1755 FILLER_22_81
*1756 FILLER_22_85
*1757 FILLER_22_99
*1758 FILLER_23_11
*1759 FILLER_23_110
*1760 FILLER_23_113
*1761 FILLER_23_117
*1762 FILLER_23_134
*1763 FILLER_23_138
*1764 FILLER_23_148
*1765 FILLER_23_161
*1766 FILLER_23_167
*1767 FILLER_23_169
*1768 FILLER_23_180
*1769 FILLER_23_184
*1770 FILLER_23_202
*1771 FILLER_23_210
*1772 FILLER_23_218
*1773 FILLER_23_225
*1774 FILLER_23_231
*1775 FILLER_23_237
*1776 FILLER_23_251
*1777 FILLER_23_260
*1778 FILLER_23_271
*1779 FILLER_23_278
*1780 FILLER_23_281
*1781 FILLER_23_297
*1782 FILLER_23_3
*1783 FILLER_23_33
*1784 FILLER_23_49
*1785 FILLER_23_55
*1786 FILLER_23_57
*1787 FILLER_23_61
*1788 FILLER_23_70
*1789 FILLER_23_74
*1790 FILLER_23_91
*1791 FILLER_23_98
*1792 FILLER_24_108
*1793 FILLER_24_11
*1794 FILLER_24_124
*1795 FILLER_24_132
*1796 FILLER_24_141
*1797 FILLER_24_145
*1798 FILLER_24_149
*1799 FILLER_24_158
*1800 FILLER_24_167
*1801 FILLER_24_17
*1802 FILLER_24_177
*1803 FILLER_24_186
*1804 FILLER_24_193
*1805 FILLER_24_197
*1806 FILLER_24_215
*1807 FILLER_24_227
*1808 FILLER_24_239
*1809 FILLER_24_249
*1810 FILLER_24_253
*1811 FILLER_24_259
*1812 FILLER_24_26
*1813 FILLER_24_270
*1814 FILLER_24_276
*1815 FILLER_24_284
*1816 FILLER_24_29
*1817 FILLER_24_293
*1818 FILLER_24_3
*1819 FILLER_24_47
*1820 FILLER_24_60
*1821 FILLER_24_71
*1822 FILLER_24_82
*1823 FILLER_24_85
*1824 FILLER_24_91
*1825 FILLER_25_108
*1826 FILLER_25_113
*1827 FILLER_25_120
*1828 FILLER_25_128