*SPEF "ieee 1481-1999"
*DESIGN "MichaelBell_hovalaag"
*DATE "11:11:11 Fri 11 11, 1111"
*VENDOR "OpenRCX"
*PROGRAM "Parallel Extraction"
*VERSION "1.0"
*DESIGN_FLOW "NAME_SCOPE LOCAL" "PIN_CAP NONE"
*DIVIDER /
*DELIMITER :
*BUS_DELIMITER []
*T_UNIT 1 NS
*C_UNIT 1 PF
*R_UNIT 1 OHM
*L_UNIT 1 HENRY

*NAME_MAP
*1 io_in[0]
*2 io_in[1]
*3 io_in[2]
*4 io_in[3]
*5 io_in[4]
*6 io_in[5]
*7 io_in[6]
*8 io_in[7]
*9 io_out[0]
*10 io_out[1]
*11 io_out[2]
*12 io_out[3]
*13 io_out[4]
*14 io_out[5]
*15 io_out[6]
*16 io_out[7]
*19 _0000_
*20 _0001_
*21 _0002_
*22 _0003_
*23 _0004_
*24 _0005_
*25 _0006_
*26 _0017_
*27 _0018_
*28 _0019_
*29 _0020_
*30 _0021_
*31 _0022_
*32 _0023_
*33 _0024_
*34 _0025_
*35 _0026_
*36 _0027_
*37 _0028_
*38 _0029_
*39 _0030_
*40 _0031_
*41 _0032_
*42 _0033_
*43 _0034_
*44 _0035_
*45 _0036_
*46 _0037_
*47 _0038_
*48 _0039_
*49 _0040_
*50 _0041_
*51 _0042_
*52 _0043_
*53 _0044_
*54 _0045_
*55 _0046_
*56 _0047_
*57 _0048_
*58 _0049_
*59 _0050_
*60 _0051_
*61 _0052_
*62 _0053_
*63 _0054_
*64 _0055_
*65 _0056_
*66 _0057_
*67 _0058_
*68 _0059_
*69 _0060_
*70 _0061_
*71 _0062_
*72 _0063_
*73 _0064_
*74 _0065_
*75 _0066_
*76 _0067_
*77 _0068_
*78 _0069_
*79 _0070_
*80 _0071_
*81 _0072_
*82 _0073_
*83 _0074_
*84 _0075_
*85 _0076_
*86 _0077_
*87 _0078_
*88 _0079_
*89 _0080_
*90 _0081_
*91 _0082_
*92 _0083_
*93 _0084_
*94 _0085_
*95 _0086_
*96 _0087_
*97 _0088_
*98 _0089_
*99 _0090_
*100 _0091_
*101 _0092_
*102 _0093_
*103 _0094_
*104 _0095_
*105 _0096_
*106 _0097_
*107 _0098_
*108 _0099_
*109 _0100_
*110 _0101_
*111 _0102_
*112 _0103_
*113 _0104_
*114 _0105_
*115 _0106_
*116 _0107_
*117 _0108_
*118 _0109_
*119 _0110_
*120 _0111_
*121 _0112_
*122 _0113_
*123 _0114_
*124 _0115_
*125 _0116_
*126 _0117_
*127 _0118_
*128 _0119_
*129 _0120_
*130 _0121_
*131 _0122_
*132 _0123_
*133 _0124_
*134 _0125_
*135 _0126_
*136 _0127_
*137 _0128_
*138 _0129_
*139 _0130_
*140 _0131_
*141 _0132_
*142 _0133_
*143 _0134_
*144 _0135_
*145 _0136_
*146 _0137_
*147 _0138_
*148 _0139_
*149 _0140_
*150 _0141_
*151 _0142_
*152 _0143_
*153 _0144_
*154 _0145_
*155 _0146_
*156 _0147_
*157 _0148_
*158 _0149_
*159 _0150_
*160 _0151_
*161 _0152_
*162 _0153_
*163 _0154_
*164 _0155_
*165 _0156_
*166 _0157_
*167 _0158_
*168 _0159_
*169 _0160_
*170 _0161_
*171 _0162_
*172 _0163_
*173 _0164_
*174 _0165_
*175 _0166_
*176 _0167_
*177 _0168_
*178 _0169_
*179 _0170_
*180 _0171_
*181 _0172_
*182 _0173_
*183 _0174_
*184 _0175_
*185 _0176_
*186 _0177_
*187 _0178_
*188 _0179_
*189 _0180_
*190 _0181_
*191 _0182_
*192 _0183_
*193 _0184_
*194 _0185_
*195 _0186_
*196 _0187_
*197 _0188_
*198 _0189_
*199 _0190_
*200 _0191_
*201 _0192_
*202 _0193_
*203 _0194_
*204 _0195_
*205 _0196_
*206 _0197_
*207 _0198_
*208 _0199_
*209 _0200_
*210 _0201_
*211 _0202_
*212 _0203_
*213 _0204_
*214 _0205_
*215 _0206_
*216 _0207_
*217 _0208_
*218 _0209_
*219 _0210_
*220 _0211_
*221 _0212_
*222 _0213_
*223 _0214_
*224 _0215_
*225 _0216_
*226 _0217_
*227 _0218_
*228 _0219_
*229 _0220_
*230 _0221_
*231 _0222_
*232 _0223_
*233 _0224_
*234 _0225_
*235 _0226_
*236 _0227_
*237 _0228_
*238 _0229_
*239 _0230_
*240 _0231_
*241 _0232_
*242 _0233_
*243 _0234_
*244 _0235_
*245 _0236_
*246 _0237_
*247 _0238_
*248 _0239_
*249 _0240_
*250 _0241_
*251 _0242_
*252 _0243_
*253 _0244_
*254 _0245_
*255 _0246_
*256 _0247_
*257 _0248_
*258 _0249_
*259 _0250_
*260 _0251_
*261 _0252_
*262 _0253_
*263 _0254_
*264 _0255_
*265 _0256_
*266 _0257_
*267 _0258_
*268 _0259_
*269 _0260_
*270 _0261_
*271 _0262_
*272 _0263_
*273 _0264_
*274 _0265_
*275 _0266_
*276 _0267_
*277 _0268_
*278 _0269_
*279 _0270_
*280 _0271_
*281 _0272_
*282 _0273_
*283 _0274_
*284 _0275_
*285 _0276_
*286 _0277_
*287 _0278_
*288 _0279_
*289 _0280_
*290 _0281_
*291 _0282_
*292 _0283_
*293 _0284_
*294 _0285_
*295 _0286_
*296 _0287_
*297 _0288_
*298 _0289_
*299 _0290_
*300 _0291_
*301 _0292_
*302 _0293_
*303 _0294_
*304 _0295_
*305 _0296_
*306 _0297_
*307 _0298_
*308 _0299_
*309 _0300_
*310 _0301_
*311 _0302_
*312 _0303_
*313 _0304_
*314 _0305_
*315 _0306_
*316 _0307_
*317 _0308_
*318 _0309_
*319 _0310_
*320 _0311_
*321 _0312_
*322 _0313_
*323 _0314_
*324 _0315_
*325 _0316_
*326 _0317_
*327 _0318_
*328 _0319_
*329 _0320_
*330 _0321_
*331 _0322_
*332 _0323_
*333 _0324_
*334 _0325_
*335 _0326_
*336 _0327_
*337 _0328_
*338 _0329_
*339 _0330_
*340 _0331_
*341 _0332_
*342 _0333_
*343 _0334_
*344 _0335_
*345 _0336_
*346 _0337_
*347 _0338_
*348 _0339_
*349 _0340_
*350 _0341_
*351 _0342_
*352 _0343_
*353 _0344_
*354 _0345_
*355 _0346_
*356 _0347_
*357 _0348_
*358 _0349_
*359 _0350_
*360 _0351_
*361 _0352_
*362 _0353_
*363 _0354_
*364 _0355_
*365 _0356_
*366 _0357_
*367 _0358_
*368 _0359_
*369 _0360_
*370 _0361_
*371 _0362_
*372 _0363_
*373 _0364_
*374 _0365_
*375 _0366_
*376 _0367_
*377 _0368_
*378 _0369_
*379 _0370_
*380 _0371_
*381 _0372_
*382 _0373_
*383 _0374_
*384 _0375_
*385 _0376_
*386 _0377_
*387 _0378_
*388 _0379_
*389 _0380_
*390 _0381_
*391 _0382_
*392 _0383_
*393 _0384_
*394 _0385_
*395 _0386_
*396 _0387_
*397 _0388_
*398 _0389_
*399 _0390_
*400 _0391_
*401 _0392_
*402 _0393_
*403 _0394_
*404 _0395_
*405 _0396_
*406 _0397_
*407 _0398_
*408 _0399_
*409 _0400_
*410 _0401_
*411 _0402_
*412 _0403_
*413 _0404_
*414 _0405_
*415 _0406_
*416 _0407_
*417 _0408_
*418 _0409_
*419 _0410_
*420 _0411_
*421 _0412_
*422 _0413_
*423 _0414_
*424 _0415_
*425 _0416_
*426 _0417_
*427 _0418_
*428 _0419_
*429 _0420_
*430 _0421_
*431 _0422_
*432 _0423_
*433 _0424_
*434 _0425_
*435 _0426_
*436 _0427_
*437 _0428_
*438 _0429_
*439 _0430_
*440 _0431_
*441 _0432_
*442 _0433_
*443 _0434_
*444 _0435_
*445 _0436_
*446 _0437_
*447 _0438_
*448 _0439_
*449 _0440_
*450 _0441_
*451 _0442_
*452 _0443_
*453 _0444_
*454 _0445_
*455 _0446_
*456 _0447_
*457 _0448_
*458 _0449_
*459 _0450_
*460 _0451_
*461 _0452_
*462 _0453_
*463 _0454_
*464 _0455_
*465 _0456_
*466 _0457_
*467 _0458_
*468 _0459_
*469 _0460_
*470 _0461_
*471 _0462_
*472 _0463_
*473 _0464_
*474 _0465_
*475 _0466_
*476 _0467_
*477 _0468_
*478 _0469_
*479 _0470_
*480 _0471_
*481 _0472_
*482 _0473_
*483 _0474_
*484 _0475_
*485 _0476_
*486 _0477_
*487 _0478_
*488 _0479_
*489 _0480_
*490 _0481_
*491 _0482_
*492 _0483_
*493 _0484_
*494 _0485_
*495 _0486_
*496 _0487_
*497 _0488_
*498 _0489_
*499 _0490_
*500 _0491_
*501 _0492_
*502 _0493_
*503 _0494_
*504 _0495_
*505 _0496_
*506 _0497_
*507 _0498_
*508 _0499_
*509 _0500_
*510 _0501_
*511 _0502_
*512 _0503_
*513 _0504_
*514 _0505_
*515 _0506_
*516 _0507_
*517 _0508_
*518 _0509_
*519 _0510_
*520 _0511_
*521 _0512_
*522 _0513_
*523 _0514_
*524 _0515_
*525 _0516_
*526 _0517_
*527 _0518_
*528 _0519_
*529 _0520_
*530 _0521_
*531 _0522_
*532 _0523_
*533 _0524_
*534 _0525_
*535 _0526_
*536 _0527_
*537 _0528_
*538 _0529_
*539 _0530_
*540 _0531_
*541 _0532_
*542 _0533_
*543 _0534_
*544 _0535_
*545 _0536_
*546 _0537_
*547 _0538_
*548 _0539_
*549 _0540_
*550 _0541_
*551 _0542_
*552 _0543_
*553 _0544_
*554 _0545_
*555 _0546_
*556 _0547_
*557 _0548_
*558 _0549_
*559 _0550_
*560 _0551_
*561 _0552_
*562 _0553_
*563 _0554_
*564 _0555_
*565 _0556_
*566 _0557_
*567 _0558_
*568 _0559_
*569 _0560_
*570 _0561_
*571 _0562_
*572 _0563_
*573 _0564_
*574 _0565_
*575 _0566_
*576 _0567_
*577 _0568_
*578 _0569_
*579 _0570_
*580 _0571_
*581 _0572_
*582 _0573_
*583 _0574_
*584 _0575_
*585 _0576_
*586 _0577_
*587 _0578_
*588 _0579_
*589 _0580_
*590 _0581_
*591 _0582_
*592 _0583_
*593 _0584_
*594 _0585_
*595 _0586_
*596 _0587_
*597 _0588_
*598 _0589_
*599 _0590_
*600 _0591_
*601 _0592_
*602 _0593_
*603 _0594_
*604 _0595_
*605 _0596_
*606 _0597_
*607 _0598_
*608 _0599_
*609 _0600_
*610 _0601_
*611 _0602_
*612 _0603_
*613 _0604_
*614 _0605_
*615 _0606_
*616 _0607_
*617 _0608_
*618 _0609_
*619 _0610_
*620 _0611_
*621 _0612_
*622 _0613_
*623 _0614_
*624 _0615_
*625 _0616_
*626 _0617_
*627 _0618_
*628 _0619_
*629 _0620_
*630 _0621_
*631 _0622_
*632 _0623_
*633 _0624_
*634 _0625_
*635 _0626_
*636 _0627_
*637 _0628_
*638 _0629_
*639 _0630_
*640 _0631_
*641 _0632_
*642 _0633_
*643 _0634_
*644 _0635_
*645 _0636_
*646 _0637_
*647 _0638_
*648 _0639_
*649 _0640_
*650 _0641_
*651 _0642_
*652 _0643_
*653 _0644_
*654 _0645_
*655 _0646_
*656 _0647_
*657 _0648_
*658 _0649_
*659 _0650_
*660 _0651_
*661 _0652_
*662 _0653_
*663 _0654_
*664 _0655_
*665 _0656_
*666 _0657_
*667 _0658_
*668 _0659_
*669 _0660_
*670 _0661_
*671 _0662_
*672 _0663_
*673 _0664_
*674 _0665_
*675 _0666_
*676 _0667_
*677 _0668_
*678 _0669_
*679 _0670_
*680 _0671_
*681 _0672_
*682 _0673_
*683 _0674_
*684 _0675_
*685 _0676_
*686 _0677_
*687 _0678_
*688 _0679_
*689 _0680_
*690 _0681_
*691 _0682_
*692 _0683_
*693 _0684_
*694 _0685_
*695 _0686_
*696 _0687_
*697 _0688_
*698 _0689_
*699 _0690_
*700 _0691_
*701 _0692_
*702 _0693_
*703 _0694_
*704 _0695_
*705 _0696_
*706 _0697_
*707 _0698_
*708 _0699_
*709 _0700_
*710 _0701_
*711 _0702_
*712 _0703_
*713 _0704_
*714 _0705_
*715 _0706_
*716 _0707_
*717 _0708_
*718 _0709_
*719 _0710_
*720 _0711_
*721 _0712_
*722 _0713_
*723 _0714_
*724 _0715_
*725 _0716_
*726 _0717_
*727 _0718_
*728 _0719_
*729 _0720_
*730 _0721_
*731 _0722_
*732 _0723_
*733 _0724_
*734 _0725_
*735 _0726_
*736 _0727_
*737 _0728_
*738 _0729_
*739 _0730_
*740 _0731_
*741 _0732_
*742 _0733_
*743 _0734_
*744 _0735_
*745 _0736_
*746 _0737_
*747 _0738_
*748 _0739_
*749 _0740_
*750 _0741_
*751 _0742_
*752 _0743_
*753 _0744_
*754 _0745_
*755 _0746_
*756 _0747_
*757 _0748_
*758 _0749_
*759 _0750_
*760 _0751_
*761 _0752_
*762 _0753_
*763 _0754_
*764 _0755_
*765 _0756_
*766 _0757_
*767 _0758_
*768 _0759_
*769 _0760_
*770 _0761_
*771 _0762_
*772 _0763_
*773 _0764_
*774 _0765_
*775 _0766_
*776 _0767_
*777 _0768_
*778 _0769_
*779 _0770_
*780 _0771_
*781 _0772_
*782 _0773_
*783 _0774_
*784 _0775_
*785 _0776_
*786 _0777_
*787 _0778_
*788 _0779_
*789 _0780_
*790 _0781_
*791 _0782_
*792 _0783_
*793 _0784_
*794 _0785_
*795 _0786_
*796 _0787_
*797 _0788_
*798 _0789_
*799 _0790_
*800 _0791_
*801 _0792_
*802 _0793_
*803 _0794_
*804 _0795_
*805 _0796_
*806 _0797_
*807 _0798_
*808 _0799_
*809 _0800_
*810 _0801_
*811 _0802_
*812 _0803_
*813 _0804_
*814 _0805_
*815 _0806_
*816 _0807_
*817 _0808_
*818 _0809_
*819 _0810_
*820 _0811_
*821 _0812_
*822 _0813_
*823 _0814_
*824 _0815_
*825 _0816_
*826 _0817_
*827 _0818_
*828 _0819_
*829 _0820_
*830 _0821_
*831 _0822_
*832 _0823_
*833 _0824_
*834 _0825_
*835 _0826_
*836 _0827_
*837 _0828_
*838 _0829_
*839 _0830_
*840 _0831_
*841 _0832_
*842 _0833_
*843 _0834_
*844 _0835_
*845 _0836_
*846 _0837_
*847 _0838_
*848 _0839_
*849 _0840_
*850 _0841_
*851 _0842_
*852 _0843_
*853 _0844_
*854 _0845_
*855 _0846_
*856 _0847_
*857 _0848_
*858 _0849_
*859 _0850_
*860 _0851_
*861 _0852_
*862 _0853_
*863 _0854_
*864 _0855_
*865 _0856_
*866 _0857_
*867 _0858_
*868 _0859_
*869 _0860_
*870 _0861_
*871 _0862_
*872 _0863_
*873 _0864_
*874 _0865_
*875 _0866_
*876 _0867_
*877 _0868_
*878 _0869_
*879 _0870_
*880 _0871_
*881 _0872_
*882 _0873_
*883 _0874_
*884 _0875_
*885 _0876_
*886 _0877_
*887 _0878_
*888 _0879_
*889 _0880_
*890 _0881_
*891 _0882_
*892 _0883_
*893 _0884_
*894 _0885_
*895 _0886_
*896 _0887_
*897 _0888_
*898 _0889_
*899 _0890_
*900 _0891_
*901 _0892_
*902 _0893_
*903 _0894_
*904 _0895_
*905 _0896_
*906 _0897_
*907 _0898_
*908 _0899_
*909 _0900_
*910 _0901_
*911 _0902_
*912 _0903_
*913 _0904_
*914 _0905_
*915 _0906_
*916 _0907_
*917 _0908_
*918 _0909_
*919 _0910_
*920 _0911_
*921 _0912_
*922 _0913_
*923 _0914_
*924 _0915_
*925 _0916_
*926 _0917_
*927 _0918_
*928 _0919_
*929 _0920_
*930 _0921_
*931 _0922_
*932 _0923_
*933 _0924_
*934 _0925_
*935 _0926_
*936 _0927_
*937 _0928_
*938 _0929_
*939 _0930_
*940 _0931_
*941 _0932_
*942 _0933_
*943 _0934_
*944 _0935_
*945 _0936_
*946 _0937_
*947 _0938_
*948 _0939_
*949 _0940_
*950 _0941_
*951 _0942_
*952 _0943_
*953 _0944_
*954 _0945_
*955 _0946_
*956 _0947_
*957 _0948_
*958 _0949_
*959 _0950_
*960 _0951_
*961 _0952_
*962 _0953_
*963 _0954_
*964 _0955_
*965 _0956_
*966 _0957_
*967 _0958_
*968 _0959_
*969 _0960_
*970 _0961_
*971 _0962_
*972 _0963_
*973 _0964_
*974 _0965_
*975 _0966_
*976 _0967_
*977 _0968_
*978 _0969_
*979 _0970_
*980 _0971_
*981 _0972_
*982 _0973_
*983 _0974_
*984 _0975_
*985 _0976_
*986 _0977_
*987 _0978_
*988 _0979_
*989 _0980_
*990 _0981_
*991 _0982_
*992 _0983_
*993 _0984_
*994 _0985_
*995 _0986_
*996 _0987_
*997 _0988_
*998 _0989_
*999 _0990_
*1000 _0991_
*1001 _0992_
*1002 _0993_
*1003 _0994_
*1004 clknet_0__0309_
*1005 clknet_0_io_in[0]
*1006 clknet_0_wrapper\.cpu_clk
*1007 clknet_1_0__leaf__0309_
*1008 clknet_1_1__leaf__0309_
*1009 clknet_3_0__leaf_io_in[0]
*1010 clknet_3_0__leaf_wrapper\.cpu_clk
*1011 clknet_3_1__leaf_io_in[0]
*1012 clknet_3_1__leaf_wrapper\.cpu_clk
*1013 clknet_3_2__leaf_io_in[0]
*1014 clknet_3_2__leaf_wrapper\.cpu_clk
*1015 clknet_3_3__leaf_io_in[0]
*1016 clknet_3_3__leaf_wrapper\.cpu_clk
*1017 clknet_3_4__leaf_io_in[0]
*1018 clknet_3_4__leaf_wrapper\.cpu_clk
*1019 clknet_3_5__leaf_io_in[0]
*1020 clknet_3_5__leaf_wrapper\.cpu_clk
*1021 clknet_3_6__leaf_io_in[0]
*1022 clknet_3_6__leaf_wrapper\.cpu_clk
*1023 clknet_3_7__leaf_io_in[0]
*1024 clknet_3_7__leaf_wrapper\.cpu_clk
*1025 net1
*1026 net10
*1027 net11
*1028 net12
*1029 net13
*1030 net14
*1031 net15
*1032 net16
*1033 net17
*1034 net18
*1035 net19
*1036 net2
*1037 net20
*1038 net21
*1039 net22
*1040 net23
*1041 net24
*1042 net25
*1043 net26
*1044 net27
*1045 net28
*1046 net29
*1047 net3
*1048 net30
*1049 net31
*1050 net32
*1051 net33
*1052 net34
*1053 net35
*1054 net36
*1055 net37
*1056 net38
*1057 net39
*1058 net4
*1059 net40
*1060 net41
*1061 net42
*1062 net43
*1063 net44
*1064 net45
*1065 net46
*1066 net47
*1067 net48
*1068 net49
*1069 net5
*1070 net50
*1071 net51
*1072 net52
*1073 net53
*1074 net54
*1075 net55
*1076 net56
*1077 net57
*1078 net58
*1079 net59
*1080 net6
*1081 net60
*1082 net61
*1083 net62
*1084 net63
*1085 net64
*1086 net65
*1087 net66
*1088 net67
*1089 net68
*1090 net7
*1091 net8
*1092 net9
*1093 wrapper\.addr\[0\]
*1094 wrapper\.addr\[1\]
*1095 wrapper\.addr\[2\]
*1096 wrapper\.addr\[3\]
*1097 wrapper\.addr\[4\]
*1098 wrapper\.addr\[5\]
*1099 wrapper\.addr\[6\]
*1100 wrapper\.addr\[7\]
*1101 wrapper\.addr\[8\]
*1102 wrapper\.addr\[9\]
*1103 wrapper\.buffered_fast_count\[0\]
*1104 wrapper\.buffered_fast_count\[1\]
*1105 wrapper\.buffered_fast_count\[2\]
*1106 wrapper\.buffered_fast_count\[3\]
*1107 wrapper\.buffered_fast_count\[4\]
*1108 wrapper\.buffered_fast_count\[5\]
*1109 wrapper\.cpu_clk
*1110 wrapper\.fast_count\[0\]
*1111 wrapper\.fast_count\[1\]
*1112 wrapper\.fast_count\[2\]
*1113 wrapper\.fast_count\[3\]
*1114 wrapper\.fast_count\[4\]
*1115 wrapper\.fast_count\[5\]
*1116 wrapper\.hov\.A\[0\]
*1117 wrapper\.hov\.A\[10\]
*1118 wrapper\.hov\.A\[11\]
*1119 wrapper\.hov\.A\[1\]
*1120 wrapper\.hov\.A\[2\]
*1121 wrapper\.hov\.A\[3\]
*1122 wrapper\.hov\.A\[4\]
*1123 wrapper\.hov\.A\[5\]
*1124 wrapper\.hov\.A\[6\]
*1125 wrapper\.hov\.A\[7\]
*1126 wrapper\.hov\.A\[8\]
*1127 wrapper\.hov\.A\[9\]
*1128 wrapper\.hov\.A_op\[0\]
*1129 wrapper\.hov\.A_op\[1\]
*1130 wrapper\.hov\.B\[0\]
*1131 wrapper\.hov\.B\[10\]
*1132 wrapper\.hov\.B\[11\]
*1133 wrapper\.hov\.B\[1\]
*1134 wrapper\.hov\.B\[2\]
*1135 wrapper\.hov\.B\[3\]
*1136 wrapper\.hov\.B\[4\]
*1137 wrapper\.hov\.B\[5\]
*1138 wrapper\.hov\.B\[6\]
*1139 wrapper\.hov\.B\[7\]
*1140 wrapper\.hov\.B\[8\]
*1141 wrapper\.hov\.B\[9\]
*1142 wrapper\.hov\.B_op\[0\]
*1143 wrapper\.hov\.B_op\[1\]
*1144 wrapper\.hov\.C\[0\]
*1145 wrapper\.hov\.C\[10\]
*1146 wrapper\.hov\.C\[11\]
*1147 wrapper\.hov\.C\[1\]
*1148 wrapper\.hov\.C\[2\]
*1149 wrapper\.hov\.C\[3\]
*1150 wrapper\.hov\.C\[4\]
*1151 wrapper\.hov\.C\[5\]
*1152 wrapper\.hov\.C\[6\]
*1153 wrapper\.hov\.C\[7\]
*1154 wrapper\.hov\.C\[8\]
*1155 wrapper\.hov\.C\[9\]
*1156 wrapper\.hov\.C_op\[0\]
*1157 wrapper\.hov\.C_op\[1\]
*1158 wrapper\.hov\.D\[0\]
*1159 wrapper\.hov\.D\[10\]
*1160 wrapper\.hov\.D\[11\]
*1161 wrapper\.hov\.D\[1\]
*1162 wrapper\.hov\.D\[2\]
*1163 wrapper\.hov\.D\[3\]
*1164 wrapper\.hov\.D\[4\]
*1165 wrapper\.hov\.D\[5\]
*1166 wrapper\.hov\.D\[6\]
*1167 wrapper\.hov\.D\[7\]
*1168 wrapper\.hov\.D\[8\]
*1169 wrapper\.hov\.D\[9\]
*1170 wrapper\.hov\.D_op
*1171 wrapper\.hov\.F
*1172 wrapper\.hov\.F_op\[0\]
*1173 wrapper\.hov\.F_op\[1\]
*1174 wrapper\.hov\.IN1\[0\]
*1175 wrapper\.hov\.IN1\[10\]
*1176 wrapper\.hov\.IN1\[11\]
*1177 wrapper\.hov\.IN1\[1\]
*1178 wrapper\.hov\.IN1\[2\]
*1179 wrapper\.hov\.IN1\[3\]
*1180 wrapper\.hov\.IN1\[4\]
*1181 wrapper\.hov\.IN1\[5\]
*1182 wrapper\.hov\.IN1\[6\]
*1183 wrapper\.hov\.IN1\[7\]
*1184 wrapper\.hov\.IN1\[8\]
*1185 wrapper\.hov\.IN1\[9\]
*1186 wrapper\.hov\.IN2\[0\]
*1187 wrapper\.hov\.IN2\[10\]
*1188 wrapper\.hov\.IN2\[11\]
*1189 wrapper\.hov\.IN2\[1\]
*1190 wrapper\.hov\.IN2\[2\]
*1191 wrapper\.hov\.IN2\[3\]
*1192 wrapper\.hov\.IN2\[4\]
*1193 wrapper\.hov\.IN2\[5\]
*1194 wrapper\.hov\.IN2\[6\]
*1195 wrapper\.hov\.IN2\[7\]
*1196 wrapper\.hov\.IN2\[8\]
*1197 wrapper\.hov\.IN2\[9\]
*1198 wrapper\.hov\.IO_select
*1199 wrapper\.hov\.K\[11\]
*1200 wrapper\.hov\.L\[0\]
*1201 wrapper\.hov\.L\[1\]
*1202 wrapper\.hov\.L\[2\]
*1203 wrapper\.hov\.L\[3\]
*1204 wrapper\.hov\.L\[4\]
*1205 wrapper\.hov\.L\[5\]
*1206 wrapper\.hov\.OUT\[0\]
*1207 wrapper\.hov\.OUT\[10\]
*1208 wrapper\.hov\.OUT\[11\]
*1209 wrapper\.hov\.OUT\[1\]
*1210 wrapper\.hov\.OUT\[2\]
*1211 wrapper\.hov\.OUT\[3\]
*1212 wrapper\.hov\.OUT\[4\]
*1213 wrapper\.hov\.OUT\[5\]
*1214 wrapper\.hov\.OUT\[6\]
*1215 wrapper\.hov\.OUT\[7\]
*1216 wrapper\.hov\.OUT\[8\]
*1217 wrapper\.hov\.OUT\[9\]
*1218 wrapper\.hov\.PC\[0\]
*1219 wrapper\.hov\.PC\[1\]
*1220 wrapper\.hov\.PC\[2\]
*1221 wrapper\.hov\.PC\[3\]
*1222 wrapper\.hov\.PC\[4\]
*1223 wrapper\.hov\.PC\[5\]
*1224 wrapper\.hov\.PC\[6\]
*1225 wrapper\.hov\.PC\[7\]
*1226 wrapper\.hov\.PC_op\[0\]
*1227 wrapper\.hov\.PC_op\[1\]
*1228 wrapper\.hov\.W\[0\]
*1229 wrapper\.hov\.W\[10\]
*1230 wrapper\.hov\.W\[11\]
*1231 wrapper\.hov\.W\[1\]
*1232 wrapper\.hov\.W\[2\]
*1233 wrapper\.hov\.W\[3\]
*1234 wrapper\.hov\.W\[4\]
*1235 wrapper\.hov\.W\[5\]
*1236 wrapper\.hov\.W\[6\]
*1237 wrapper\.hov\.W\[7\]
*1238 wrapper\.hov\.W\[8\]
*1239 wrapper\.hov\.W\[9\]
*1240 wrapper\.hov\.W_op\[0\]
*1241 wrapper\.hov\.W_op\[1\]
*1242 wrapper\.hov\.alu_op\[0\]
*1243 wrapper\.hov\.alu_op\[1\]
*1244 wrapper\.hov\.alu_op\[2\]
*1245 wrapper\.hov\.alu_op\[3\]
*1246 wrapper\.hov\.instr\[10\]
*1247 wrapper\.hov\.instr\[12\]
*1248 wrapper\.hov\.instr\[14\]
*1249 wrapper\.hov\.instr\[6\]
*1250 wrapper\.hov\.instr\[7\]
*1251 wrapper\.hov\.instr\[8\]
*1252 wrapper\.hov\.instr\[9\]
*1253 wrapper\.io_in\[2\]
*1254 wrapper\.io_in\[3\]
*1255 wrapper\.io_in\[4\]
*1256 wrapper\.io_in\[5\]
*1257 wrapper\.rosc\.c2_clkout
*1258 wrapper\.rosc\.c\[0\]
*1259 wrapper\.rosc\.c\[1\]
*1260 wrapper\.rosc\.c\[2\]
*1261 wrapper\.rosc\.fast_clk
*1262 wrapper\.rosc\.out\[0\]
*1263 wrapper\.rosc\.out\[1\]
*1264 wrapper\.rosc\.out\[2\]
*1265 wrapper\.rosc\.reset_hold\[0\]
*1266 wrapper\.rosc\.reset_hold\[1\]
*1267 wrapper\.rosc\.reset_hold\[2\]
*1268 wrapper\.seg7\.segments\[0\]
*1269 wrapper\.seg7\.segments\[1\]
*1270 wrapper\.seg7\.segments\[2\]
*1271 wrapper\.seg7\.segments\[3\]
*1272 wrapper\.seg7\.segments\[4\]
*1273 wrapper\.seg7\.segments\[5\]
*1274 wrapper\.seg7\.segments\[6\]
*1275 ANTENNA_1
*1276 ANTENNA_10
*1277 ANTENNA_11
*1278 ANTENNA_12
*1279 ANTENNA_13
*1280 ANTENNA_14
*1281 ANTENNA_15
*1282 ANTENNA_16
*1283 ANTENNA_17
*1284 ANTENNA_18
*1285 ANTENNA_2
*1286 ANTENNA_3
*1287 ANTENNA_4
*1288 ANTENNA_5
*1289 ANTENNA_6
*1290 ANTENNA_7
*1291 ANTENNA_8
*1292 ANTENNA_9
*1293 FILLER_0_107
*1294 FILLER_0_111
*1295 FILLER_0_113
*1296 FILLER_0_120
*1297 FILLER_0_127
*1298 FILLER_0_138
*1299 FILLER_0_141
*1300 FILLER_0_152
*1301 FILLER_0_163
*1302 FILLER_0_167
*1303 FILLER_0_169
*1304 FILLER_0_176
*1305 FILLER_0_185
*1306 FILLER_0_194
*1307 FILLER_0_197
*1308 FILLER_0_204
*1309 FILLER_0_21
*1310 FILLER_0_212
*1311 FILLER_0_219
*1312 FILLER_0_223
*1313 FILLER_0_225
*1314 FILLER_0_230
*1315 FILLER_0_237
*1316 FILLER_0_244
*1317 FILLER_0_253
*1318 FILLER_0_258
*1319 FILLER_0_265
*1320 FILLER_0_27
*1321 FILLER_0_272
*1322 FILLER_0_284
*1323 FILLER_0_288
*1324 FILLER_0_29
*1325 FILLER_0_293
*1326 FILLER_0_3
*1327 FILLER_0_36
*1328 FILLER_0_45
*1329 FILLER_0_54
*1330 FILLER_0_57
*1331 FILLER_0_68
*1332 FILLER_0_76
*1333 FILLER_0_82
*1334 FILLER_0_85
*1335 FILLER_0_89
*1336 FILLER_0_95
*1337 FILLER_10_101
*1338 FILLER_10_110
*1339 FILLER_10_116
*1340 FILLER_10_138
*1341 FILLER_10_141
*1342 FILLER_10_147
*1343 FILLER_10_15
*1344 FILLER_10_157
*1345 FILLER_10_168
*1346 FILLER_10_179
*1347 FILLER_10_187
*1348 FILLER_10_194
*1349 FILLER_10_197
*1350 FILLER_10_215
*1351 FILLER_10_229
*1352 FILLER_10_238
*1353 FILLER_10_24
*1354 FILLER_10_242
*1355 FILLER_10_248
*1356 FILLER_10_253
*1357 FILLER_10_263
*1358 FILLER_10_270
*1359 FILLER_10_277
*1360 FILLER_10_284
*1361 FILLER_10_29
*1362 FILLER_10_291
*1363 FILLER_10_3
*1364 FILLER_10_41
*1365 FILLER_10_65
*1366 FILLER_10_73
*1367 FILLER_10_82
*1368 FILLER_10_85
*1369 FILLER_10_91
*1370 FILLER_11_10
*1371 FILLER_11_100
*1372 FILLER_11_110
*1373 FILLER_11_113
*1374 FILLER_11_131
*1375 FILLER_11_139
*1376 FILLER_11_164
*1377 FILLER_11_169
*1378 FILLER_11_174
*1379 FILLER_11_186
*1380 FILLER_11_196
*1381 FILLER_11_203
*1382 FILLER_11_215
*1383 FILLER_11_222
*1384 FILLER_11_225
*1385 FILLER_11_235
*1386 FILLER_11_243
*1387 FILLER_11_251
*1388 FILLER_11_258
*1389 FILLER_11_269
*1390 FILLER_11_276
*1391 FILLER_11_281
*1392 FILLER_11_290
*1393 FILLER_11_297
*1394 FILLER_11_3
*1395 FILLER_11_34
*1396 FILLER_11_54
*1397 FILLER_11_57
*1398 FILLER_11_68
*1399 FILLER_11_88
*1400 FILLER_12_114
*1401 FILLER_12_122
*1402 FILLER_12_131
*1403 FILLER_12_138
*1404 FILLER_12_141
*1405 FILLER_12_163
*1406 FILLER_12_175
*1407 FILLER_12_18
*1408 FILLER_12_183
*1409 FILLER_12_194
*1410 FILLER_12_197
*1411 FILLER_12_202
*1412 FILLER_12_214
*1413 FILLER_12_222
*1414 FILLER_12_232
*1415 FILLER_12_240
*1416 FILLER_12_250
*1417 FILLER_12_253
*1418 FILLER_12_26
*1419 FILLER_12_262
*1420 FILLER_12_273
*1421 FILLER_12_281
*1422 FILLER_12_29
*1423 FILLER_12_290
*1424 FILLER_12_297
*1425 FILLER_12_3
*1426 FILLER_12_39
*1427 FILLER_12_65
*1428 FILLER_12_82
*1429 FILLER_12_85
*1430 FILLER_12_93
*1431 FILLER_12_97
*1432 FILLER_13_10
*1433 FILLER_13_109
*1434 FILLER_13_113
*1435 FILLER_13_121
*1436 FILLER_13_146
*1437 FILLER_13_166
*1438 FILLER_13_169
*1439 FILLER_13_183
*1440 FILLER_13_194
*1441 FILLER_13_20
*1442 FILLER_13_204
*1443 FILLER_13_214
*1444 FILLER_13_222
*1445 FILLER_13_225
*1446 FILLER_13_232
*1447 FILLER_13_244
*1448 FILLER_13_253
*1449 FILLER_13_266
*1450 FILLER_13_27
*1451 FILLER_13_273
*1452 FILLER_13_279
*1453 FILLER_13_281
*1454 FILLER_13_291
*1455 FILLER_13_3
*1456 FILLER_13_36
*1457 FILLER_13_40
*1458 FILLER_13_50
*1459 FILLER_13_57
*1460 FILLER_13_67
*1461 FILLER_13_80
*1462 FILLER_13_88
*1463 FILLER_13_99
*1464 FILLER_14_118
*1465 FILLER_14_133
*1466 FILLER_14_139
*1467 FILLER_14_141
*1468 FILLER_14_159
*1469 FILLER_14_166
*1470 FILLER_14_177
*1471 FILLER_14_189
*1472 FILLER_14_195
*1473 FILLER_14_197
*1474 FILLER_14_207
*1475 FILLER_14_215
*1476 FILLER_14_227
*1477 FILLER_14_231
*1478 FILLER_14_239
*1479 FILLER_14_249
*1480 FILLER_14_253
*1481 FILLER_14_259
*1482 FILLER_14_26
*1483 FILLER_14_266
*1484 FILLER_14_273
*1485 FILLER_14_279
*1486 FILLER_14_284
*1487 FILLER_14_29
*1488 FILLER_14_293
*1489 FILLER_14_3
*1490 FILLER_14_35
*1491 FILLER_14_48
*1492 FILLER_14_55
*1493 FILLER_14_75
*1494 FILLER_14_8
*1495 FILLER_14_82
*1496 FILLER_14_85
*1497 FILLER_14_89
*1498 FILLER_14_98
*1499 FILLER_15_103
*1500 FILLER_15_11
*1501 FILLER_15_110
*1502 FILLER_15_113
*1503 FILLER_15_131
*1504 FILLER_15_139
*1505 FILLER_15_164
*1506 FILLER_15_169
*1507 FILLER_15_18
*1508 FILLER_15_187
*1509 FILLER_15_197
*1510 FILLER_15_205
*1511 FILLER_15_215
*1512 FILLER_15_22
*1513 FILLER_15_222
*1514 FILLER_15_225
*1515 FILLER_15_234
*1516 FILLER_15_250
*1517 FILLER_15_258
*1518 FILLER_15_267
*1519 FILLER_15_271
*1520 FILLER_15_278
*1521 FILLER_15_281
*1522 FILLER_15_290
*1523 FILLER_15_297
*1524 FILLER_15_3
*1525 FILLER_15_40
*1526 FILLER_15_48
*1527 FILLER_15_54
*1528 FILLER_15_57
*1529 FILLER_15_63
*1530 FILLER_15_75
*1531 FILLER_15_99
*1532 FILLER_16_121
*1533 FILLER_16_125
*1534 FILLER_16_132
*1535 FILLER_16_141
*1536 FILLER_16_145
*1537 FILLER_16_154
*1538 FILLER_16_178
*1539 FILLER_16_184
*1540 FILLER_16_194
*1541 FILLER_16_197
*1542 FILLER_16_204
*1543 FILLER_16_218
*1544 FILLER_16_222
*1545 FILLER_16_228
*1546 FILLER_16_239
*1547 FILLER_16_243
*1548 FILLER_16_250
*1549 FILLER_16_253
*1550 FILLER_16_257
*1551 FILLER_16_26
*1552 FILLER_16_271
*1553 FILLER_16_279
*1554 FILLER_16_289
*1555 FILLER_16_29
*1556 FILLER_16_296
*1557 FILLER_16_3
*1558 FILLER_16_40
*1559 FILLER_16_52
*1560 FILLER_16_61
*1561 FILLER_16_7
*1562 FILLER_16_70
*1563 FILLER_16_82
*1564 FILLER_16_85
*1565 FILLER_16_97
*1566 FILLER_17_107
*1567 FILLER_17_111
*1568 FILLER_17_113
*1569 FILLER_17_12
*1570 FILLER_17_142
*1571 FILLER_17_166
*1572 FILLER_17_169
*1573 FILLER_17_187
*1574 FILLER_17_209
*1575 FILLER_17_219
*1576 FILLER_17_223
*1577 FILLER_17_225
*1578 FILLER_17_232
*1579 FILLER_17_241
*1580 FILLER_17_257
*1581 FILLER_17_265
*1582 FILLER_17_273
*1583 FILLER_17_279
*1584 FILLER_17_281
*1585 FILLER_17_285
*1586 FILLER_17_293
*1587 FILLER_17_3
*1588 FILLER_17_36
*1589 FILLER_17_40
*1590 FILLER_17_48
*1591 FILLER_17_57
*1592 FILLER_17_62
*1593 FILLER_17_82
*1594 FILLER_17_95
*1595 FILLER_18_101
*1596 FILLER_18_107
*1597 FILLER_18_116
*1598 FILLER_18_126
*1599 FILLER_18_132
*1600 FILLER_18_138
*1601 FILLER_18_141
*1602 FILLER_18_145
*1603 FILLER_18_163
*1604 FILLER_18_17
*1605 FILLER_18_172
*1606 FILLER_18_180
*1607 FILLER_18_186
*1608 FILLER_18_191
*1609 FILLER_18_195
*1610 FILLER_18_197
*1611 FILLER_18_205
*1612 FILLER_18_209
*1613 FILLER_18_216
*1614 FILLER_18_220
*1615 FILLER_18_231
*1616 FILLER_18_249
*1617 FILLER_18_253
*1618 FILLER_18_257
*1619 FILLER_18_269
*1620 FILLER_18_273
*1621 FILLER_18_29
*1622 FILLER_18_293
*1623 FILLER_18_3
*1624 FILLER_18_37
*1625 FILLER_18_47
*1626 FILLER_18_57
*1627 FILLER_18_71
*1628 FILLER_18_8
*1629 FILLER_18_82
*1630 FILLER_18_85
*1631 FILLER_18_92
*1632 FILLER_19_101
*1633 FILLER_19_110
*1634 FILLER_19_113
*1635 FILLER_19_117
*1636 FILLER_19_126
*1637 FILLER_19_14
*1638 FILLER_19_142
*1639 FILLER_19_162
*1640 FILLER_19_169
*1641 FILLER_19_176
*1642 FILLER_19_188
*1643 FILLER_19_196
*1644 FILLER_19_206
*1645 FILLER_19_21
*1646 FILLER_19_214
*1647 FILLER_19_222
*1648 FILLER_19_225
*1649 FILLER_19_243
*1650 FILLER_19_25
*1651 FILLER_19_255
*1652 FILLER_19_259
*1653 FILLER_19_272
*1654 FILLER_19_281
*1655 FILLER_19_291
*1656 FILLER_19_3
*1657 FILLER_19_43
*1658 FILLER_19_47
*1659 FILLER_19_54
*1660 FILLER_19_57
*1661 FILLER_19_67
*1662 FILLER_19_74
*1663 FILLER_19_87
*1664 FILLER_19_95
*1665 FILLER_1_110
*1666 FILLER_1_113
*1667 FILLER_1_122
*1668 FILLER_1_146
*1669 FILLER_1_157
*1670 FILLER_1_166
*1671 FILLER_1_169
*1672 FILLER_1_176
*1673 FILLER_1_185
*1674 FILLER_1_194
*1675 FILLER_1_201
*1676 FILLER_1_205
*1677 FILLER_1_211
*1678 FILLER_1_219
*1679 FILLER_1_223
*1680 FILLER_1_225
*1681 FILLER_1_230
*1682 FILLER_1_237
*1683 FILLER_1_244
*1684 FILLER_1_252
*1685 FILLER_1_260
*1686 FILLER_1_267
*1687 FILLER_1_274
*1688 FILLER_1_281
*1689 FILLER_1_286
*1690 FILLER_1_29
*1691 FILLER_1_293
*1692 FILLER_1_3
*1693 FILLER_1_49
*1694 FILLER_1_55
*1695 FILLER_1_57
*1696 FILLER_1_61
*1697 FILLER_1_67
*1698 FILLER_1_87
*1699 FILLER_1_9
*1700 FILLER_1_93
*1701 FILLER_20_103
*1702 FILLER_20_115
*1703 FILLER_20_135
*1704 FILLER_20_139
*1705 FILLER_20_141
*1706 FILLER_20_151
*1707 FILLER_20_155
*1708 FILLER_20_164
*1709 FILLER_20_173
*1710 FILLER_20_181
*1711 FILLER_20_188
*1712 FILLER_20_197
*1713 FILLER_20_215
*1714 FILLER_20_228
*1715 FILLER_20_24
*1716 FILLER_20_241
*1717 FILLER_20_249
*1718 FILLER_20_253
*1719 FILLER_20_269
*1720 FILLER_20_283
*1721 FILLER_20_29
*1722 FILLER_20_293
*1723 FILLER_20_3
*1724 FILLER_20_33
*1725 FILLER_20_37
*1726 FILLER_20_46
*1727 FILLER_20_67
*1728 FILLER_20_7
*1729 FILLER_20_81
*1730 FILLER_20_85
*1731 FILLER_21_11
*1732 FILLER_21_110
*1733 FILLER_21_113
*1734 FILLER_21_131
*1735 FILLER_21_140
*1736 FILLER_21_149
*1737 FILLER_21_15
*1738 FILLER_21_157
*1739 FILLER_21_166
*1740 FILLER_21_169
*1741 FILLER_21_188
*1742 FILLER_21_198
*1743 FILLER_21_21
*1744 FILLER_21_218
*1745 FILLER_21_225
*1746 FILLER_21_233
*1747 FILLER_21_241
*1748 FILLER_21_254
*1749 FILLER_21_264
*1750 FILLER_21_273
*1751 FILLER_21_279
*1752 FILLER_21_281
*1753 FILLER_21_288
*1754 FILLER_21_297
*1755 FILLER_21_3
*1756 FILLER_21_45
*1757 FILLER_21_54
*1758 FILLER_21_57
*1759 FILLER_21_63
*1760 FILLER_21_74
*1761 FILLER_21_86
*1762 FILLER_21_98
*1763 FILLER_22_101
*1764 FILLER_22_113
*1765 FILLER_22_125
*1766 FILLER_22_137
*1767 FILLER_22_141
*1768 FILLER_22_148
*1769 FILLER_22_160
*1770 FILLER_22_168
*1771 FILLER_22_176
*1772 FILLER_22_183
*1773 FILLER_22_192
*1774 FILLER_22_197
*1775 FILLER_22_215
*1776 FILLER_22_233
*1777 FILLER_22_24
*1778 FILLER_22_241
*1779 FILLER_22_250
*1780 FILLER_22_253
*1781 FILLER_22_258
*1782 FILLER_22_270
*1783 FILLER_22_282
*1784 FILLER_22_29
*1785 FILLER_22_293
*1786 FILLER_22_3
*1787 FILLER_22_47
*1788 FILLER_22_51
*1789 FILLER_22_59
*1790 FILLER_22_7
*1791 FILLER_22_70
*1792 FILLER_22_82
*1793 FILLER_22_85
*1794 FILLER_23_109
*1795 FILLER_23_113
*1796 FILLER_23_12
*1797 FILLER_23_131
*1798 FILLER_23_137
*1799 FILLER_23_154
*1800 FILLER_23_160
*1801 FILLER_23_166
*1802 FILLER_23_169
*1803 FILLER_23_175
*1804 FILLER_23_182
*1805 FILLER_23_194
*1806 FILLER_23_206
*1807 FILLER_23_214
*1808 FILLER_23_222
*1809 FILLER_23_225
*1810 FILLER_23_239
*1811 FILLER_23_243
*1812 FILLER_23_254
*1813 FILLER_23_270
*1814 FILLER_23_277
*1815 FILLER_23_281
*1816 FILLER_23_290
*1817 FILLER_23_297
*1818 FILLER_23_3
*1819 FILLER_23_36
*1820 FILLER_23_43
*1821 FILLER_23_54
*1822 FILLER_23_57
*1823 FILLER_23_66
*1824 FILLER_23_70
*1825 FILLER_23_76
*1826 FILLER_23_97
*1827 FILLER_24_103
*1828 FILLER_24_120
*1829 FILLER_24_124
*1830 FILLER_24_133
*1831 FILLER_24_139
*1832 FILLER_24_141
*1833 FILLER_24_159
*1834 FILLER_24_17
*1835 FILLER_24_172
*1836 FILLER_24_184
*1837 FILLER_24_192
*1838 FILLER_24_197