*SPEF "ieee 1481-1999"
*DESIGN "migcorre_pwm"
*DATE "11:11:11 Fri 11 11, 1111"
*VENDOR "OpenRCX"
*PROGRAM "Parallel Extraction"
*VERSION "1.0"
*DESIGN_FLOW "NAME_SCOPE LOCAL" "PIN_CAP NONE"
*DIVIDER /
*DELIMITER :
*BUS_DELIMITER []
*T_UNIT 1 NS
*C_UNIT 1 PF
*R_UNIT 1 OHM
*L_UNIT 1 HENRY

*NAME_MAP
*1 io_in[0]
*2 io_in[1]
*3 io_in[2]
*4 io_in[3]
*5 io_in[4]
*6 io_in[5]
*7 io_in[6]
*8 io_in[7]
*9 io_out[0]
*10 io_out[1]
*11 io_out[2]
*12 io_out[3]
*13 net5
*14 net6
*15 net7
*16 net8
*19 _000_
*20 _001_
*21 _002_
*22 _003_
*23 _004_
*24 _005_
*25 _006_
*26 _007_
*27 _008_
*28 _009_
*29 _010_
*30 _011_
*31 _012_
*32 _013_
*33 _014_
*34 _015_
*35 _016_
*36 _017_
*37 _018_
*38 _019_
*39 _020_
*40 _021_
*41 _022_
*42 _023_
*43 _024_
*44 _025_
*45 _026_
*46 _027_
*47 _028_
*48 _029_
*49 _030_
*50 _031_
*51 _032_
*52 _033_
*53 _034_
*54 _035_
*55 _036_
*56 _037_
*57 _038_
*58 _039_
*59 _040_
*60 _041_
*61 _042_
*62 _043_
*63 _044_
*64 _045_
*65 _046_
*66 _047_
*67 _048_
*68 _049_
*69 _050_
*70 _051_
*71 _052_
*72 _053_
*73 _054_
*74 _055_
*75 _056_
*76 _057_
*77 _058_
*78 _059_
*79 _060_
*80 _061_
*81 _062_
*82 _063_
*83 _064_
*84 _065_
*85 _066_
*86 _067_
*87 _068_
*88 _069_
*89 _070_
*90 _071_
*91 _072_
*92 _073_
*93 _074_
*94 _075_
*95 _076_
*96 _077_
*97 _078_
*98 _079_
*99 _080_
*100 _081_
*101 _082_
*102 _083_
*103 _084_
*104 _085_
*105 _086_
*106 _087_
*107 _088_
*108 _089_
*109 _090_
*110 _091_
*111 _092_
*112 _093_
*113 _094_
*114 _095_
*115 _096_
*116 _097_
*117 _098_
*118 _099_
*119 _100_
*120 _101_
*121 _102_
*122 _103_
*123 _104_
*124 _105_
*125 _106_
*126 _107_
*127 _108_
*128 _109_
*129 _110_
*130 _111_
*131 _112_
*132 _113_
*133 _114_
*134 _115_
*135 _116_
*136 _117_
*137 _118_
*138 _119_
*139 _120_
*140 _121_
*141 _122_
*142 _123_
*143 clknet_0_io_in[0]
*144 clknet_2_0__leaf_io_in[0]
*145 clknet_2_1__leaf_io_in[0]
*146 clknet_2_2__leaf_io_in[0]
*147 clknet_2_3__leaf_io_in[0]
*148 decrease_debuncer\.DFF1
*149 decrease_debuncer\.DFF2
*150 decrease_debuncer\.debounced_signal0
*151 decrease_debuncer\.debounced_signal1
*152 decrease_debuncer\.q_reg\[0\]
*153 decrease_debuncer\.q_reg\[1\]
*154 decrease_debuncer\.q_reg\[2\]
*155 decrease_debuncer\.q_reg\[3\]
*156 decrease_debuncer\.q_reg\[4\]
*157 decrease_debuncer\.q_reg\[5\]
*158 decrease_debuncer\.q_reg\[6\]
*159 decrease_debuncer\.q_reg\[7\]
*160 decrease_debuncer\.signal_in
*161 increase_debuncer\.DFF1
*162 increase_debuncer\.DFF2
*163 increase_debuncer\.debounced_signal0
*164 increase_debuncer\.debounced_signal1
*165 increase_debuncer\.q_reg\[0\]
*166 increase_debuncer\.q_reg\[1\]
*167 increase_debuncer\.q_reg\[2\]
*168 increase_debuncer\.q_reg\[3\]
*169 increase_debuncer\.q_reg\[4\]
*170 increase_debuncer\.q_reg\[5\]
*171 increase_debuncer\.q_reg\[6\]
*172 increase_debuncer\.q_reg\[7\]
*173 increase_debuncer\.signal_in
*174 net1
*175 net10
*176 net11
*177 net2
*178 net3
*179 net4
*180 net9
*181 pwm_dc\.counter_duty\[0\]
*182 pwm_dc\.counter_duty\[1\]
*183 pwm_dc\.counter_duty\[2\]
*184 pwm_dc\.counter_duty\[3\]
*185 pwm_dc\.pwm_duty\[0\]
*186 pwm_dc\.pwm_duty\[1\]
*187 pwm_dc\.pwm_duty\[2\]
*188 pwm_dc\.pwm_duty\[3\]
*189 pwm_dc\.pwm_out
*190 synchronizer_decrease_duty\.sync_reg\[1\]
*191 synchronizer_increase_duty\.sync_reg\[1\]
*192 synchronizer_sisable_debouncer\.sync_out
*193 synchronizer_sisable_debouncer\.sync_reg\[1\]
*194 FILLER_0_103
*195 FILLER_0_111
*196 FILLER_0_113
*197 FILLER_0_125
*198 FILLER_0_137
*199 FILLER_0_141
*200 FILLER_0_153
*201 FILLER_0_165
*202 FILLER_0_169
*203 FILLER_0_181
*204 FILLER_0_193
*205 FILLER_0_197
*206 FILLER_0_209
*207 FILLER_0_22
*208 FILLER_0_221
*209 FILLER_0_225
*210 FILLER_0_237
*211 FILLER_0_249
*212 FILLER_0_253
*213 FILLER_0_265
*214 FILLER_0_277
*215 FILLER_0_281
*216 FILLER_0_29
*217 FILLER_0_293
*218 FILLER_0_3
*219 FILLER_0_37
*220 FILLER_0_54
*221 FILLER_0_57
*222 FILLER_0_75
*223 FILLER_0_83
*224 FILLER_0_85
*225 FILLER_10_100
*226 FILLER_10_112
*227 FILLER_10_124
*228 FILLER_10_136
*229 FILLER_10_141
*230 FILLER_10_153
*231 FILLER_10_165
*232 FILLER_10_177
*233 FILLER_10_189
*234 FILLER_10_195
*235 FILLER_10_197
*236 FILLER_10_209
*237 FILLER_10_21
*238 FILLER_10_221
*239 FILLER_10_233
*240 FILLER_10_245
*241 FILLER_10_251
*242 FILLER_10_253
*243 FILLER_10_265
*244 FILLER_10_27
*245 FILLER_10_277
*246 FILLER_10_289
*247 FILLER_10_29
*248 FILLER_10_297
*249 FILLER_10_3
*250 FILLER_10_41
*251 FILLER_10_47
*252 FILLER_10_64
*253 FILLER_10_76
*254 FILLER_10_85
*255 FILLER_10_93
*256 FILLER_11_111
*257 FILLER_11_113
*258 FILLER_11_118
*259 FILLER_11_130
*260 FILLER_11_142
*261 FILLER_11_154
*262 FILLER_11_166
*263 FILLER_11_169
*264 FILLER_11_181
*265 FILLER_11_193
*266 FILLER_11_205
*267 FILLER_11_217
*268 FILLER_11_223
*269 FILLER_11_225
*270 FILLER_11_237
*271 FILLER_11_249
*272 FILLER_11_261
*273 FILLER_11_273
*274 FILLER_11_279
*275 FILLER_11_281
*276 FILLER_11_293
*277 FILLER_11_3
*278 FILLER_11_30
*279 FILLER_11_51
*280 FILLER_11_55
*281 FILLER_11_57
*282 FILLER_11_75
*283 FILLER_11_8
*284 FILLER_11_87
*285 FILLER_11_99
*286 FILLER_12_108
*287 FILLER_12_117
*288 FILLER_12_129
*289 FILLER_12_137
*290 FILLER_12_141
*291 FILLER_12_153
*292 FILLER_12_165
*293 FILLER_12_177
*294 FILLER_12_189
*295 FILLER_12_195
*296 FILLER_12_197
*297 FILLER_12_209
*298 FILLER_12_221
*299 FILLER_12_233
*300 FILLER_12_245
*301 FILLER_12_25
*302 FILLER_12_251
*303 FILLER_12_253
*304 FILLER_12_265
*305 FILLER_12_277
*306 FILLER_12_289
*307 FILLER_12_29
*308 FILLER_12_297
*309 FILLER_12_3
*310 FILLER_12_41
*311 FILLER_12_63
*312 FILLER_12_71
*313 FILLER_12_77
*314 FILLER_12_83
*315 FILLER_12_85
*316 FILLER_12_96
*317 FILLER_13_111
*318 FILLER_13_113
*319 FILLER_13_119
*320 FILLER_13_123
*321 FILLER_13_135
*322 FILLER_13_147
*323 FILLER_13_15
*324 FILLER_13_159
*325 FILLER_13_167
*326 FILLER_13_169
*327 FILLER_13_181
*328 FILLER_13_193
*329 FILLER_13_205
*330 FILLER_13_217
*331 FILLER_13_223
*332 FILLER_13_225
*333 FILLER_13_237
*334 FILLER_13_249
*335 FILLER_13_261
*336 FILLER_13_273
*337 FILLER_13_279
*338 FILLER_13_281
*339 FILLER_13_293
*340 FILLER_13_3
*341 FILLER_13_34
*342 FILLER_13_54
*343 FILLER_13_57
*344 FILLER_13_69
*345 FILLER_13_78
*346 FILLER_13_88
*347 FILLER_13_99
*348 FILLER_14_104
*349 FILLER_14_117
*350 FILLER_14_129
*351 FILLER_14_137
*352 FILLER_14_141
*353 FILLER_14_153
*354 FILLER_14_165
*355 FILLER_14_177
*356 FILLER_14_189
*357 FILLER_14_195
*358 FILLER_14_197
*359 FILLER_14_209
*360 FILLER_14_22
*361 FILLER_14_221
*362 FILLER_14_233
*363 FILLER_14_245
*364 FILLER_14_251
*365 FILLER_14_253
*366 FILLER_14_265
*367 FILLER_14_277
*368 FILLER_14_289
*369 FILLER_14_29
*370 FILLER_14_297
*371 FILLER_14_3
*372 FILLER_14_41
*373 FILLER_14_60
*374 FILLER_14_80
*375 FILLER_14_85
*376 FILLER_14_93
*377 FILLER_15_110
*378 FILLER_15_113
*379 FILLER_15_125
*380 FILLER_15_133
*381 FILLER_15_145
*382 FILLER_15_157
*383 FILLER_15_165
*384 FILLER_15_169
*385 FILLER_15_181
*386 FILLER_15_193
*387 FILLER_15_205
*388 FILLER_15_217
*389 FILLER_15_223
*390 FILLER_15_225
*391 FILLER_15_23
*392 FILLER_15_237
*393 FILLER_15_249
*394 FILLER_15_261
*395 FILLER_15_273
*396 FILLER_15_279
*397 FILLER_15_281
*398 FILLER_15_293
*399 FILLER_15_3
*400 FILLER_15_43
*401 FILLER_15_55
*402 FILLER_15_57
*403 FILLER_15_61
*404 FILLER_15_67
*405 FILLER_15_79
*406 FILLER_15_86
*407 FILLER_15_98
*408 FILLER_16_106
*409 FILLER_16_117
*410 FILLER_16_129
*411 FILLER_16_137
*412 FILLER_16_141
*413 FILLER_16_153
*414 FILLER_16_165
*415 FILLER_16_177
*416 FILLER_16_189
*417 FILLER_16_195
*418 FILLER_16_197
*419 FILLER_16_209
*420 FILLER_16_21
*421 FILLER_16_221
*422 FILLER_16_233
*423 FILLER_16_245
*424 FILLER_16_251
*425 FILLER_16_253
*426 FILLER_16_265
*427 FILLER_16_27
*428 FILLER_16_277
*429 FILLER_16_289
*430 FILLER_16_29
*431 FILLER_16_297
*432 FILLER_16_3
*433 FILLER_16_41
*434 FILLER_16_53
*435 FILLER_16_61
*436 FILLER_16_67
*437 FILLER_16_79
*438 FILLER_16_83
*439 FILLER_16_85
*440 FILLER_16_93
*441 FILLER_16_97
*442 FILLER_17_107
*443 FILLER_17_111
*444 FILLER_17_113
*445 FILLER_17_122
*446 FILLER_17_134
*447 FILLER_17_14
*448 FILLER_17_146
*449 FILLER_17_158
*450 FILLER_17_166
*451 FILLER_17_169
*452 FILLER_17_181
*453 FILLER_17_193
*454 FILLER_17_205
*455 FILLER_17_21
*456 FILLER_17_217
*457 FILLER_17_223
*458 FILLER_17_225
*459 FILLER_17_237
*460 FILLER_17_249
*461 FILLER_17_261
*462 FILLER_17_273
*463 FILLER_17_279
*464 FILLER_17_281
*465 FILLER_17_293
*466 FILLER_17_3
*467 FILLER_17_30
*468 FILLER_17_39
*469 FILLER_17_45
*470 FILLER_17_49
*471 FILLER_17_55
*472 FILLER_17_57
*473 FILLER_17_74
*474 FILLER_17_78
*475 FILLER_17_82
*476 FILLER_17_9
*477 FILLER_17_96
*478 FILLER_18_102
*479 FILLER_18_114
*480 FILLER_18_12
*481 FILLER_18_126
*482 FILLER_18_134
*483 FILLER_18_141
*484 FILLER_18_153
*485 FILLER_18_165
*486 FILLER_18_177
*487 FILLER_18_189
*488 FILLER_18_195
*489 FILLER_18_197
*490 FILLER_18_209
*491 FILLER_18_221
*492 FILLER_18_233
*493 FILLER_18_245
*494 FILLER_18_251
*495 FILLER_18_253
*496 FILLER_18_26
*497 FILLER_18_265
*498 FILLER_18_277
*499 FILLER_18_289
*500 FILLER_18_29
*501 FILLER_18_297
*502 FILLER_18_3
*503 FILLER_18_39
*504 FILLER_18_51
*505 FILLER_18_64
*506 FILLER_18_76
*507 FILLER_18_82
*508 FILLER_18_85
*509 FILLER_18_95
*510 FILLER_19_10
*511 FILLER_19_101
*512 FILLER_19_109
*513 FILLER_19_113
*514 FILLER_19_125
*515 FILLER_19_137
*516 FILLER_19_14
*517 FILLER_19_149
*518 FILLER_19_161
*519 FILLER_19_167
*520 FILLER_19_169
*521 FILLER_19_181
*522 FILLER_19_19
*523 FILLER_19_193
*524 FILLER_19_205
*525 FILLER_19_217
*526 FILLER_19_223
*527 FILLER_19_225
*528 FILLER_19_237
*529 FILLER_19_249
*530 FILLER_19_261
*531 FILLER_19_273
*532 FILLER_19_279
*533 FILLER_19_281
*534 FILLER_19_29
*535 FILLER_19_293
*536 FILLER_19_3
*537 FILLER_19_36
*538 FILLER_19_54
*539 FILLER_19_57
*540 FILLER_19_62
*541 FILLER_19_66
*542 FILLER_19_75
*543 FILLER_19_86
*544 FILLER_19_95
*545 FILLER_1_107
*546 FILLER_1_111
*547 FILLER_1_113
*548 FILLER_1_125
*549 FILLER_1_137
*550 FILLER_1_149
*551 FILLER_1_161
*552 FILLER_1_167
*553 FILLER_1_169
*554 FILLER_1_181
*555 FILLER_1_193
*556 FILLER_1_205
*557 FILLER_1_209
*558 FILLER_1_213
*559 FILLER_1_221
*560 FILLER_1_225
*561 FILLER_1_237
*562 FILLER_1_249
*563 FILLER_1_26
*564 FILLER_1_261
*565 FILLER_1_273
*566 FILLER_1_279
*567 FILLER_1_281
*568 FILLER_1_293
*569 FILLER_1_3
*570 FILLER_1_30
*571 FILLER_1_48
*572 FILLER_1_57
*573 FILLER_1_75
*574 FILLER_1_95
*575 FILLER_20_104
*576 FILLER_20_111
*577 FILLER_20_125
*578 FILLER_20_137
*579 FILLER_20_141
*580 FILLER_20_153
*581 FILLER_20_165
*582 FILLER_20_177
*583 FILLER_20_189
*584 FILLER_20_195
*585 FILLER_20_197
*586 FILLER_20_209
*587 FILLER_20_21
*588 FILLER_20_221
*589 FILLER_20_233
*590 FILLER_20_245
*591 FILLER_20_251
*592 FILLER_20_253
*593 FILLER_20_265
*594 FILLER_20_27
*595 FILLER_20_277
*596 FILLER_20_289
*597 FILLER_20_29
*598 FILLER_20_297
*599 FILLER_20_3
*600 FILLER_20_41
*601 FILLER_20_49
*602 FILLER_20_57
*603 FILLER_20_66
*604 FILLER_20_79
*605 FILLER_20_83
*606 FILLER_20_85
*607 FILLER_20_9
*608 FILLER_20_92
*609 FILLER_20_98
*610 FILLER_21_103
*611 FILLER_21_111
*612 FILLER_21_113
*613 FILLER_21_125
*614 FILLER_21_137
*615 FILLER_21_14
*616 FILLER_21_149
*617 FILLER_21_161
*618 FILLER_21_167
*619 FILLER_21_169
*620 FILLER_21_181
*621 FILLER_21_193
*622 FILLER_21_20
*623 FILLER_21_205
*624 FILLER_21_217
*625 FILLER_21_223
*626 FILLER_21_225
*627 FILLER_21_237
*628 FILLER_21_249
*629 FILLER_21_26
*630 FILLER_21_261
*631 FILLER_21_273
*632 FILLER_21_279
*633 FILLER_21_281
*634 FILLER_21_293
*635 FILLER_21_3
*636 FILLER_21_32
*637 FILLER_21_41
*638 FILLER_21_52
*639 FILLER_21_57
*640 FILLER_21_66
*641 FILLER_21_78
*642 FILLER_21_9
*643 FILLER_21_90
*644 FILLER_21_98
*645 FILLER_22_101
*646 FILLER_22_109
*647 FILLER_22_11
*648 FILLER_22_121
*649 FILLER_22_132
*650 FILLER_22_141
*651 FILLER_22_153
*652 FILLER_22_165
*653 FILLER_22_177
*654 FILLER_22_189
*655 FILLER_22_195
*656 FILLER_22_197
*657 FILLER_22_209
*658 FILLER_22_221
*659 FILLER_22_23
*660 FILLER_22_233
*661 FILLER_22_245
*662 FILLER_22_251
*663 FILLER_22_253
*664 FILLER_22_265
*665 FILLER_22_27
*666 FILLER_22_277
*667 FILLER_22_289
*668 FILLER_22_29
*669 FILLER_22_297
*670 FILLER_22_3
*671 FILLER_22_34
*672 FILLER_22_46
*673 FILLER_22_54
*674 FILLER_22_59
*675 FILLER_22_65
*676 FILLER_22_70
*677 FILLER_22_82
*678 FILLER_22_85
*679 FILLER_22_97
*680 FILLER_23_101
*681 FILLER_23_109
*682 FILLER_23_113
*683 FILLER_23_125
*684 FILLER_23_137
*685 FILLER_23_149
*686 FILLER_23_16
*687 FILLER_23_161
*688 FILLER_23_167
*689 FILLER_23_169
*690 FILLER_23_181
*691 FILLER_23_193
*692 FILLER_23_205
*693 FILLER_23_21
*694 FILLER_23_217
*695 FILLER_23_223
*696 FILLER_23_225
*697 FILLER_23_237
*698 FILLER_23_249
*699 FILLER_23_25
*700 FILLER_23_261
*701 FILLER_23_273
*702 FILLER_23_279
*703 FILLER_23_281
*704 FILLER_23_293
*705 FILLER_23_3
*706 FILLER_23_35
*707 FILLER_23_47
*708 FILLER_23_54
*709 FILLER_23_57
*710 FILLER_23_64
*711 FILLER_23_72
*712 FILLER_23_77
*713 FILLER_23_8
*714 FILLER_23_89
*715 FILLER_23_95
*716 FILLER_24_106
*717 FILLER_24_118
*718 FILLER_24_130
*719 FILLER_24_138
*720 FILLER_24_141
*721 FILLER_24_153
*722 FILLER_24_165
*723 FILLER_24_177
*724 FILLER_24_18
*725 FILLER_24_189
*726 FILLER_24_195
*727 FILLER_24_197
*728 FILLER_24_209
*729 FILLER_24_221
*730 FILLER_24_233
*731 FILLER_24_245
*732 FILLER_24_251
*733 FILLER_24_253
*734 FILLER_24_26
*735 FILLER_24_265
*736 FILLER_24_277
*737 FILLER_24_289
*738 FILLER_24_29
*739 FILLER_24_297
*740 FILLER_24_3
*741 FILLER_24_40
*742 FILLER_24_51
*743 FILLER_24_60
*744 FILLER_24_72
*745 FILLER_24_85
*746 FILLER_24_9
*747 FILLER_24_94
*748 FILLER_25_101
*749 FILLER_25_109
*750 FILLER_25_113
*751 FILLER_25_125
*752 FILLER_25_137
*753 FILLER_25_149
*754 FILLER_25_16
*755 FILLER_25_161
*756 FILLER_25_167
*757 FILLER_25_169
*758 FILLER_25_181
*759 FILLER_25_193
*760 FILLER_25_205
*761 FILLER_25_217
*762 FILLER_25_223
*763 FILLER_25_225
*764 FILLER_25_237
*765 FILLER_25_24
*766 FILLER_25_249
*767 FILLER_25_261
*768 FILLER_25_273
*769 FILLER_25_279
*770 FILLER_25_281
*771 FILLER_25_293
*772 FILLER_25_3
*773 FILLER_25_32
*774 FILLER_25_42
*775 FILLER_25_52
*776 FILLER_25_57
*777 FILLER_25_65
*778 FILLER_25_77
*779 FILLER_25_8
*780 FILLER_25_89
*781 FILLER_26_109
*782 FILLER_26_121
*783 FILLER_26_133
*784 FILLER_26_139
*785 FILLER_26_141
*786 FILLER_26_15
*787 FILLER_26_153
*788 FILLER_26_165
*789 FILLER_26_177
*790 FILLER_26_189
*791 FILLER_26_195
*792 FILLER_26_197
*793 FILLER_26_209
*794 FILLER_26_21
*795 FILLER_26_221
*796 FILLER_26_233
*797 FILLER_26_245
*798 FILLER_26_25
*799 FILLER_26_251
*800 FILLER_26_253
*801 FILLER_26_265
*802 FILLER_26_277
*803 FILLER_26_289
*804 FILLER_26_29
*805 FILLER_26_297
*806 FILLER_26_3
*807 FILLER_26_36
*808 FILLER_26_46
*809 FILLER_26_56
*810 FILLER_26_68
*811 FILLER_26_80
*812 FILLER_26_85
*813 FILLER_26_9
*814 FILLER_26_97
*815 FILLER_27_105
*816 FILLER_27_11
*817 FILLER_27_111
*818 FILLER_27_113
*819 FILLER_27_125
*820 FILLER_27_137
*821 FILLER_27_149
*822 FILLER_27_161
*823 FILLER_27_167
*824 FILLER_27_169
*825 FILLER_27_181
*826 FILLER_27_19
*827 FILLER_27_193
*828 FILLER_27_205
*829 FILLER_27_217
*830 FILLER_27_223
*831 FILLER_27_225
*832 FILLER_27_23
*833 FILLER_27_237
*834 FILLER_27_249
*835 FILLER_27_261
*836 FILLER_27_273
*837 FILLER_27_279
*838 FILLER_27_281
*839 FILLER_27_293
*840 FILLER_27_3
*841 FILLER_27_35
*842 FILLER_27_43
*843 FILLER_27_50
*844 FILLER_27_57
*845 FILLER_27_69
*846 FILLER_27_81
*847 FILLER_27_93
*848 FILLER_28_109
*849 FILLER_28_121
*850 FILLER_28_133
*851 FILLER_28_139
*852 FILLER_28_141
*853 FILLER_28_153
*854 FILLER_28_165
*855 FILLER_28_177
*856 FILLER_28_189
*857 FILLER_28_195
*858 FILLER_28_197
*859 FILLER_28_209
*860 FILLER_28_21
*861 FILLER_28_221
*862 FILLER_28_233
*863 FILLER_28_245
*864 FILLER_28_251
*865 FILLER_28_253
*866 FILLER_28_265
*867 FILLER_28_27
*868 FILLER_28_277
*869 FILLER_28_289
*870 FILLER_28_29
*871 FILLER_28_297
*872 FILLER_28_3
*873 FILLER_28_34
*874 FILLER_28_42
*875 FILLER_28_49
*876 FILLER_28_57
*877 FILLER_28_67
*878 FILLER_28_79
*879 FILLER_28_83
*880 FILLER_28_85
*881 FILLER_28_9
*882 FILLER_28_97
*883 FILLER_29_100
*884 FILLER_29_113
*885 FILLER_29_125
*886 FILLER_29_137
*887 FILLER_29_149
*888 FILLER_29_15
*889 FILLER_29_161
*890 FILLER_29_167
*891 FILLER_29_169
*892 FILLER_29_181
*893 FILLER_29_193
*894 FILLER_29_205
*895 FILLER_29_217
*896 FILLER_29_223
*897 FILLER_29_225
*898 FILLER_29_237
*899 FILLER_29_249
*900 FILLER_29_261
*901 FILLER_29_273
*902 FILLER_29_279
*903 FILLER_29_281
*904 FILLER_29_293
*905 FILLER_29_3
*906 FILLER_29_30
*907 FILLER_29_43
*908 FILLER_29_50
*909 FILLER_29_57
*910 FILLER_29_64
*911 FILLER_29_76
*912 FILLER_29_88
*913 FILLER_2_107
*914 FILLER_2_119
*915 FILLER_2_131
*916 FILLER_2_139
*917 FILLER_2_141
*918 FILLER_2_153
*919 FILLER_2_165
*920 FILLER_2_177
*921 FILLER_2_189
*922 FILLER_2_195
*923 FILLER_2_197
*924 FILLER_2_209
*925 FILLER_2_22
*926 FILLER_2_221
*927 FILLER_2_233
*928 FILLER_2_245
*929 FILLER_2_251
*930 FILLER_2_253
*931 FILLER_2_265
*932 FILLER_2_277
*933 FILLER_2_289
*934 FILLER_2_29
*935 FILLER_2_297
*936 FILLER_2_3
*937 FILLER_2_41
*938 FILLER_2_65
*939 FILLER_2_77
*940 FILLER_2_83
*941 FILLER_2_85
*942 FILLER_2_95
*943 FILLER_30_109
*944 FILLER_30_121
*945 FILLER_30_133
*946 FILLER_30_139
*947 FILLER_30_141
*948 FILLER_30_15
*949 FILLER_30_153
*950 FILLER_30_165
*951 FILLER_30_177
*952 FILLER_30_189
*953 FILLER_30_195
*954 FILLER_30_197
*955 FILLER_30_209
*956 FILLER_30_221
*957 FILLER_30_233
*958 FILLER_30_245
*959 FILLER_30_251
*960 FILLER_30_253
*961 FILLER_30_26
*962 FILLER_30_265
*963 FILLER_30_277
*964 FILLER_30_289
*965 FILLER_30_29
*966 FILLER_30_297
*967 FILLER_30_3
*968 FILLER_30_41
*969 FILLER_30_45
*970 FILLER_30_50
*971 FILLER_30_62
*972 FILLER_30_74
*973 FILLER_30_82
*974 FILLER_30_85
*975 FILLER_30_97
*976 FILLER_31_105
*977 FILLER_31_111
*978 FILLER_31_113
*979 FILLER_31_125
*980 FILLER_31_13
*981 FILLER_31_137
*982 FILLER_31_149
*983 FILLER_31_161
*984 FILLER_31_167
*985 FILLER_31_169
*986 FILLER_31_181
*987 FILLER_31_193
*988 FILLER_31_20
*989 FILLER_31_205
*990 FILLER_31_217
*991 FILLER_31_223
*992 FILLER_31_225
*993 FILLER_31_237
*994 FILLER_31_249
*995 FILLER_31_261
*996 FILLER_31_273
*997 FILLER_31_279
*998 FILLER_31_281
*999 FILLER_31_293
*1000 FILLER_31_3
*1001 FILLER_31_31
*1002 FILLER_31_42
*1003 FILLER_31_54
*1004 FILLER_31_57
*1005 FILLER_31_69
*1006 FILLER_31_81
*1007 FILLER_31_93
*1008 FILLER_32_109
*1009 FILLER_32_11
*1010 FILLER_32_121
*1011 FILLER_32_133
*1012 FILLER_32_139
*1013 FILLER_32_141
*1014 FILLER_32_153
*1015 FILLER_32_165
*1016 FILLER_32_177
*1017 FILLER_32_189
*1018 FILLER_32_19
*1019 FILLER_32_195
*1020 FILLER_32_197
*1021 FILLER_32_209
*1022 FILLER_32_221
*1023 FILLER_32_233
*1024 FILLER_32_245
*1025 FILLER_32_251
*1026 FILLER_32_253
*1027 FILLER_32_265
*1028 FILLER_32_27
*1029 FILLER_32_277
*1030 FILLER_32_289
*1031 FILLER_32_29
*1032 FILLER_32_297
*1033 FILLER_32_3
*1034 FILLER_32_33
*1035 FILLER_32_39
*1036 FILLER_32_51
*1037 FILLER_32_63
*1038 FILLER_32_75
*1039 FILLER_32_83
*1040 FILLER_32_85
*1041 FILLER_32_97
*1042 FILLER_33_101
*1043 FILLER_33_109
*1044 FILLER_33_113
*1045 FILLER_33_12
*1046 FILLER_33_125
*1047 FILLER_33_137
*1048 FILLER_33_149
*1049 FILLER_33_161
*1050 FILLER_33_167
*1051 FILLER_33_169
*1052 FILLER_33_181
*1053 FILLER_33_193
*1054 FILLER_33_205
*1055 FILLER_33_217
*1056 FILLER_33_223
*1057 FILLER_33_225
*1058 FILLER_33_237
*1059 FILLER_33_24
*1060 FILLER_33_249
*1061 FILLER_33_261
*1062 FILLER_33_273
*1063 FILLER_33_279
*1064 FILLER_33_281
*1065 FILLER_33_293
*1066 FILLER_33_3
*1067 FILLER_33_36
*1068 FILLER_33_48
*1069 FILLER_33_57
*1070 FILLER_33_65
*1071 FILLER_33_7
*1072 FILLER_33_77
*1073 FILLER_33_89
*1074 FILLER_34_109
*1075 FILLER_34_121
*1076 FILLER_34_133
*1077 FILLER_34_139
*1078 FILLER_34_141
*1079 FILLER_34_15
*1080 FILLER_34_153
*1081 FILLER_34_165
*1082 FILLER_34_177
*1083 FILLER_34_189
*1084 FILLER_34_195
*1085 FILLER_34_197
*1086 FILLER_34_209
*1087 FILLER_34_221
*1088 FILLER_34_233
*1089 FILLER_34_245
*1090 FILLER_34_251
*1091 FILLER_34_253
*1092 FILLER_34_265
*1093 FILLER_34_27
*1094 FILLER_34_277
*1095 FILLER_34_289
*1096 FILLER_34_29
*1097 FILLER_34_297
*1098 FILLER_34_3
*1099 FILLER_34_41
*1100 FILLER_34_53
*1101 FILLER_34_65
*1102 FILLER_34_77
*1103 FILLER_34_83
*1104 FILLER_34_85
*1105 FILLER_34_97
*1106 FILLER_35_105
*1107 FILLER_35_111
*1108 FILLER_35_113
*1109 FILLER_35_125
*1110 FILLER_35_137
*1111 FILLER_35_149
*1112 FILLER_35_15
*1113 FILLER_35_161
*1114 FILLER_35_167
*1115 FILLER_35_169
*1116 FILLER_35_181
*1117 FILLER_35_193
*1118 FILLER_35_205
*1119 FILLER_35_217
*1120 FILLER_35_223
*1121 FILLER_35_225
*1122 FILLER_35_237
*1123 FILLER_35_249
*1124 FILLER_35_261
*1125 FILLER_35_27
*1126 FILLER_35_273
*1127 FILLER_35_279
*1128 FILLER_35_281
*1129 FILLER_35_293
*1130 FILLER_35_3
*1131 FILLER_35_39
*1132 FILLER_35_51
*1133 FILLER_35_55
*1134 FILLER_35_57
*1135 FILLER_35_69
*1136 FILLER_35_81
*1137 FILLER_35_93
*1138 FILLER_36_109
*1139 FILLER_36_121
*1140 FILLER_36_13
*1141 FILLER_36_133
*1142 FILLER_36_139
*1143 FILLER_36_141
*1144 FILLER_36_153
*1145 FILLER_36_165
*1146 FILLER_36_177
*1147 FILLER_36_189
*1148 FILLER_36_195
*1149 FILLER_36_197
*1150 FILLER_36_209
*1151 FILLER_36_221
*1152 FILLER_36_233
*1153 FILLER_36_245
*1154 FILLER_36_25
*1155 FILLER_36_251
*1156 FILLER_36_253
*1157 FILLER_36_265
*1158 FILLER_36_277
*1159 FILLER_36_289
*1160 FILLER_36_29
*1161 FILLER_36_297
*1162 FILLER_36_3
*1163 FILLER_36_41
*1164 FILLER_36_53
*1165 FILLER_36_65
*1166 FILLER_36_77
*1167 FILLER_36_83
*1168 FILLER_36_85
*1169 FILLER_36_97
*1170 FILLER_37_105
*1171 FILLER_37_111
*1172 FILLER_37_113
*1173 FILLER_37_125
*1174 FILLER_37_137
*1175 FILLER_37_149
*1176 FILLER_37_15
*1177 FILLER_37_161
*1178 FILLER_37_167
*1179 FILLER_37_169
*1180 FILLER_37_181
*1181 FILLER_37_193
*1182 FILLER_37_205
*1183 FILLER_37_217
*1184 FILLER_37_223
*1185 FILLER_37_225
*1186 FILLER_37_237
*1187 FILLER_37_249
*1188 FILLER_37_261
*1189 FILLER_37_27
*1190 FILLER_37_273
*1191 FILLER_37_279
*1192 FILLER_37_281
*1193 FILLER_37_293
*1194 FILLER_37_3
*1195 FILLER_37_39
*1196 FILLER_37_51
*1197 FILLER_37_55
*1198 FILLER_37_57
*1199 FILLER_37_69
*1200 FILLER_37_81
*1201 FILLER_37_93
*1202 FILLER_38_109
*1203 FILLER_38_121
*1204 FILLER_38_133
*1205 FILLER_38_139
*1206 FILLER_38_141
*1207 FILLER_38_15
*1208 FILLER_38_153
*1209 FILLER_38_165
*1210 FILLER_38_177
*1211 FILLER_38_189
*1212 FILLER_38_195
*1213 FILLER_38_197
*1214 FILLER_38_209
*1215 FILLER_38_221
*1216 FILLER_38_233
*1217 FILLER_38_245
*1218 FILLER_38_251
*1219 FILLER_38_253
*1220 FILLER_38_265
*1221 FILLER_38_27
*1222 FILLER_38_277
*1223 FILLER_38_289
*1224 FILLER_38_29
*1225 FILLER_38_297
*1226 FILLER_38_3
*1227 FILLER_38_41
*1228 FILLER_38_53
*1229 FILLER_38_65
*1230 FILLER_38_77
*1231 FILLER_38_83
*1232 FILLER_38_85
*1233 FILLER_38_97
*1234 FILLER_39_105
*1235 FILLER_39_111
*1236 FILLER_39_113
*1237 FILLER_39_125
*1238 FILLER_39_137
*1239 FILLER_39_149
*1240 FILLER_39_15
*1241 FILLER_39_161
*1242 FILLER_39_167
*1243 FILLER_39_169
*1244 FILLER_39_181
*1245 FILLER_39_193
*1246 FILLER_39_205
*1247 FILLER_39_217
*1248 FILLER_39_223
*1249 FILLER_39_225
*1250 FILLER_39_237
*1251 FILLER_39_249
*1252 FILLER_39_261
*1253 FILLER_39_27
*1254 FILLER_39_273
*1255 FILLER_39_279
*1256 FILLER_39_281
*1257 FILLER_39_293
*1258 FILLER_39_3
*1259 FILLER_39_39
*1260 FILLER_39_51
*1261 FILLER_39_55
*1262 FILLER_39_57
*1263 FILLER_39_69
*1264 FILLER_39_81
*1265 FILLER_39_93
*1266 FILLER_3_105
*1267 FILLER_3_111
*1268 FILLER_3_113
*1269 FILLER_3_125
*1270 FILLER_3_137
*1271 FILLER_3_149
*1272 FILLER_3_161
*1273 FILLER_3_167
*1274 FILLER_3_169
*1275 FILLER_3_181
*1276 FILLER_3_193
*1277 FILLER_3_205
*1278 FILLER_3_217
*1279 FILLER_3_223
*1280 FILLER_3_225
*1281 FILLER_3_237
*1282 FILLER_3_249
*1283 FILLER_3_25
*1284 FILLER_3_261
*1285 FILLER_3_273
*1286 FILLER_3_279
*1287 FILLER_3_281
*1288 FILLER_3_293
*1289 FILLER_3_3
*1290 FILLER_3_34
*1291 FILLER_3_54
*1292 FILLER_3_57
*1293 FILLER_3_75
*1294 FILLER_3_95
*1295 FILLER_40_109
*1296 FILLER_40_121
*1297 FILLER_40_133
*1298 FILLER_40_139
*1299 FILLER_40_141
*1300 FILLER_40_15
*1301 FILLER_40_153
*1302 FILLER_40_165
*1303 FILLER_40_177
*1304 FILLER_40_189
*1305 FILLER_40_195
*1306 FILLER_40_197
*1307 FILLER_40_209
*1308 FILLER_40_221
*1309 FILLER_40_233
*1310 FILLER_40_245
*1311 FILLER_40_251
*1312 FILLER_40_253
*1313 FILLER_40_265
*1314 FILLER_40_27
*1315 FILLER_40_277
*1316 FILLER_40_289
*1317 FILLER_40_29
*1318 FILLER_40_297
*1319 FILLER_40_3
*1320 FILLER_40_41
*1321 FILLER_40_53
*1322 FILLER_40_65
*1323 FILLER_40_77
*1324 FILLER_40_83
*1325 FILLER_40_85
*1326 FILLER_40_97
*1327 FILLER_41_105
*1328 FILLER_41_111
*1329 FILLER_41_113
*1330 FILLER_41_125
*1331 FILLER_41_137
*1332 FILLER_41_149
*1333 FILLER_41_15
*1334 FILLER_41_161
*1335 FILLER_41_167
*1336 FILLER_41_169
*1337 FILLER_41_181
*1338 FILLER_41_193
*1339 FILLER_41_205
*1340 FILLER_41_217
*1341 FILLER_41_223
*1342 FILLER_41_225
*1343 FILLER_41_237
*1344 FILLER_41_249
*1345 FILLER_41_261
*1346 FILLER_41_27
*1347 FILLER_41_273
*1348 FILLER_41_279
*1349 FILLER_41_281
*1350 FILLER_41_293
*1351 FILLER_41_3
*1352 FILLER_41_39
*1353 FILLER_41_51
*1354 FILLER_41_55
*1355 FILLER_41_57
*1356 FILLER_41_69
*1357 FILLER_41_81
*1358 FILLER_41_93
*1359 FILLER_42_109
*1360 FILLER_42_121
*1361 FILLER_42_133
*1362 FILLER_42_139
*1363 FILLER_42_141
*1364 FILLER_42_15
*1365 FILLER_42_153
*1366 FILLER_42_165
*1367 FILLER_42_177
*1368 FILLER_42_189
*1369 FILLER_42_195
*1370 FILLER_42_197
*1371 FILLER_42_209
*1372 FILLER_42_221
*1373 FILLER_42_233
*1374 FILLER_42_245
*1375 FILLER_42_251
*1376 FILLER_42_253
*1377 FILLER_42_265
*1378 FILLER_42_27
*1379 FILLER_42_277
*1380 FILLER_42_289
*1381 FILLER_42_29
*1382 FILLER_42_297
*1383 FILLER_42_3
*1384 FILLER_42_41
*1385 FILLER_42_53
*1386 FILLER_42_65
*1387 FILLER_42_77
*1388 FILLER_42_83
*1389 FILLER_42_85
*1390 FILLER_42_97
*1391 FILLER_43_105
*1392 FILLER_43_111
*1393 FILLER_43_113
*1394 FILLER_43_125
*1395 FILLER_43_137
*1396 FILLER_43_149
*1397 FILLER_43_15
*1398 FILLER_43_161
*1399 FILLER_43_167
*1400 FILLER_43_169
*1401 FILLER_43_181
*1402 FILLER_43_193
*1403 FILLER_43_205
*1404 FILLER_43_217
*1405 FILLER_43_223
*1406 FILLER_43_225
*1407 FILLER_43_237
*1408 FILLER_43_249
*1409 FILLER_43_261
*1410 FILLER_43_27
*1411 FILLER_43_273
*1412 FILLER_43_279
*1413 FILLER_43_281
*1414 FILLER_43_293
*1415 FILLER_43_3
*1416 FILLER_43_39
*1417 FILLER_43_51
*1418 FILLER_43_55
*1419 FILLER_43_57
*1420 FILLER_43_69
*1421 FILLER_43_81
*1422 FILLER_43_93
*1423 FILLER_44_109
*1424 FILLER_44_121
*1425 FILLER_44_133
*1426 FILLER_44_139
*1427 FILLER_44_141
*1428 FILLER_44_15
*1429 FILLER_44_153
*1430 FILLER_44_165
*1431 FILLER_44_177
*1432 FILLER_44_189
*1433 FILLER_44_195
*1434 FILLER_44_197
*1435 FILLER_44_209
*1436 FILLER_44_221
*1437 FILLER_44_233
*1438 FILLER_44_245
*1439 FILLER_44_251
*1440 FILLER_44_253
*1441 FILLER_44_265
*1442 FILLER_44_27
*1443 FILLER_44_277
*1444 FILLER_44_289
*1445 FILLER_44_29
*1446 FILLER_44_297
*1447 FILLER_44_3
*1448 FILLER_44_41
*1449 FILLER_44_53
*1450 FILLER_44_65
*1451 FILLER_44_77
*1452 FILLER_44_83
*1453 FILLER_44_85
*1454 FILLER_44_97
*1455 FILLER_45_105
*1456 FILLER_45_111
*1457 FILLER_45_113
*1458 FILLER_45_125
*1459 FILLER_45_137
*1460 FILLER_45_149
*1461 FILLER_45_15
*1462 FILLER_45_161
*1463 FILLER_45_167
*1464 FILLER_45_169
*1465 FILLER_45_181
*1466 FILLER_45_193
*1467 FILLER_45_205
*1468 FILLER_45_217
*1469 FILLER_45_223
*1470 FILLER_45_225
*1471 FILLER_45_237
*1472 FILLER_45_249
*1473 FILLER_45_261
*1474 FILLER_45_27
*1475 FILLER_45_273
*1476 FILLER_45_279
*1477 FILLER_45_281
*1478 FILLER_45_293
*1479 FILLER_45_3
*1480 FILLER_45_39
*1481 FILLER_45_51
*1482 FILLER_45_55
*1483 FILLER_45_57
*1484 FILLER_45_69
*1485 FILLER_45_81
*1486 FILLER_45_93
*1487 FILLER_46_109
*1488 FILLER_46_121
*1489 FILLER_46_133
*1490 FILLER_46_139
*1491 FILLER_46_141
*1492 FILLER_46_153
*1493 FILLER_46_165
*1494 FILLER_46_177
*1495 FILLER_46_189
*1496 FILLER_46_195
*1497 FILLER_46_197
*1498 FILLER_46_20
*1499 FILLER_46_209
*1500 FILLER_46_221
*1501 FILLER_46_233
*1502 FILLER_46_245
*1503 FILLER_46_251
*1504 FILLER_46_253
*1505 FILLER_46_265
*1506 FILLER_46_277
*1507 FILLER_46_289
*1508 FILLER_46_29
*1509 FILLER_46_297
*1510 FILLER_46_3
*1511 FILLER_46_41
*1512 FILLER_46_53
*1513 FILLER_46_65
*1514 FILLER_46_77
*1515 FILLER_46_8
*1516 FILLER_46_83
*1517 FILLER_46_85
*1518 FILLER_46_97
*1519 FILLER_47_105
*1520 FILLER_47_111
*1521 FILLER_47_113
*1522 FILLER_47_125
*1523 FILLER_47_137
*1524 FILLER_47_149
*1525 FILLER_47_15
*1526 FILLER_47_161
*1527 FILLER_47_167
*1528 FILLER_47_169
*1529 FILLER_47_181
*1530 FILLER_47_193
*1531 FILLER_47_205
*1532 FILLER_47_217
*1533 FILLER_47_223
*1534 FILLER_47_225
*1535 FILLER_47_237
*1536 FILLER_47_249
*1537 FILLER_47_261
*1538 FILLER_47_27
*1539 FILLER_47_273
*1540 FILLER_47_279
*1541 FILLER_47_281
*1542 FILLER_47_293
*1543 FILLER_47_3
*1544 FILLER_47_39
*1545 FILLER_47_51
*1546 FILLER_47_55
*1547 FILLER_47_57
*1548 FILLER_47_69
*1549 FILLER_47_81
*1550 FILLER_47_93
*1551 FILLER_48_109
*1552 FILLER_48_121
*1553 FILLER_48_133
*1554 FILLER_48_139
*1555 FILLER_48_141
*1556 FILLER_48_15
*1557 FILLER_48_153
*1558 FILLER_48_165
*1559 FILLER_48_177
*1560 FILLER_48_189
*1561 FILLER_48_195
*1562 FILLER_48_197
*1563 FILLER_48_209
*1564 FILLER_48_221
*1565 FILLER_48_233
*1566 FILLER_48_245
*1567 FILLER_48_251
*1568 FILLER_48_253
*1569 FILLER_48_265
*1570 FILLER_48_27
*1571 FILLER_48_277
*1572 FILLER_48_289
*1573 FILLER_48_29
*1574 FILLER_48_297
*1575 FILLER_48_3
*1576 FILLER_48_41
*1577 FILLER_48_53
*1578 FILLER_48_65
*1579 FILLER_48_77
*1580 FILLER_48_83
*1581 FILLER_48_85
*1582 FILLER_48_97
*1583 FILLER_49_105
*1584 FILLER_49_111
*1585 FILLER_49_113
*1586 FILLER_49_125
*1587 FILLER_49_137
*1588 FILLER_49_149
*1589 FILLER_49_15
*1590 FILLER_49_161
*1591 FILLER_49_167
*1592 FILLER_49_169
*1593 FILLER_49_181
*1594 FILLER_49_193
*1595 FILLER_49_205
*1596 FILLER_49_217
*1597 FILLER_49_223
*1598 FILLER_49_225