*SPEF "ieee 1481-1999"
*DESIGN "mm21_LEDMatrixTop"
*DATE "11:11:11 Fri 11 11, 1111"
*VENDOR "OpenRCX"
*PROGRAM "Parallel Extraction"
*VERSION "1.0"
*DESIGN_FLOW "NAME_SCOPE LOCAL" "PIN_CAP NONE"
*DIVIDER /
*DELIMITER :
*BUS_DELIMITER []
*T_UNIT 1 NS
*C_UNIT 1 PF
*R_UNIT 1 OHM
*L_UNIT 1 HENRY

*NAME_MAP
*1 io_in[0]
*2 io_in[1]
*3 io_in[2]
*4 io_in[3]
*5 io_in[4]
*6 io_in[5]
*7 io_in[6]
*8 io_in[7]
*9 io_out[0]
*10 io_out[1]
*11 io_out[2]
*12 io_out[3]
*13 io_out[4]
*14 io_out[5]
*15 io_out[6]
*16 net3
*19 _000_
*20 _001_
*21 _002_
*22 _003_
*23 _004_
*24 _005_
*25 _006_
*26 _007_
*27 _008_
*28 _009_
*29 _010_
*30 _011_
*31 _012_
*32 _013_
*33 _014_
*34 _015_
*35 _016_
*36 _017_
*37 _018_
*38 _019_
*39 _020_
*40 _021_
*41 _022_
*42 _023_
*43 _024_
*44 _025_
*45 _026_
*46 _027_
*47 _028_
*48 _029_
*49 _030_
*50 _031_
*51 _032_
*52 _033_
*53 _034_
*54 _035_
*55 _036_
*56 _037_
*57 _038_
*58 _039_
*59 _040_
*60 _041_
*61 _042_
*62 _043_
*63 _044_
*64 _045_
*65 _046_
*66 _047_
*67 _048_
*68 _049_
*69 _050_
*70 _051_
*71 _052_
*72 _053_
*73 _054_
*74 _055_
*75 _056_
*76 _057_
*77 _058_
*78 _059_
*79 _060_
*80 _061_
*81 _062_
*82 _063_
*83 _064_
*84 _065_
*85 _066_
*86 _067_
*87 _068_
*88 _069_
*89 _070_
*90 _071_
*91 _072_
*92 _073_
*93 _074_
*94 _075_
*95 _076_
*96 _077_
*97 _078_
*98 _079_
*99 _080_
*100 _081_
*101 _082_
*102 _083_
*103 _084_
*104 _085_
*105 _086_
*106 _087_
*107 _088_
*108 _089_
*109 _090_
*110 _091_
*111 _092_
*112 _093_
*113 _094_
*114 _095_
*115 _096_
*116 _097_
*117 _098_
*118 _099_
*119 _100_
*120 _101_
*121 _102_
*122 _103_
*123 _104_
*124 _105_
*125 _106_
*126 _107_
*127 _108_
*128 _109_
*129 _110_
*130 _111_
*131 _112_
*132 _113_
*133 _114_
*134 _115_
*135 _116_
*136 _117_
*137 _118_
*138 _119_
*139 _120_
*140 _121_
*141 _122_
*142 _123_
*143 _124_
*144 _125_
*145 _126_
*146 _127_
*147 _128_
*148 _129_
*149 _130_
*150 _131_
*151 _132_
*152 _133_
*153 _134_
*154 _135_
*155 _136_
*156 _137_
*157 _138_
*158 _139_
*159 _140_
*160 _141_
*161 _142_
*162 _143_
*163 _144_
*164 _145_
*165 _146_
*166 _147_
*167 _148_
*168 _149_
*169 _150_
*170 _151_
*171 _152_
*172 _153_
*173 _154_
*174 _155_
*175 _156_
*176 _157_
*177 _158_
*178 _159_
*179 _160_
*180 _161_
*181 _162_
*182 _163_
*183 _164_
*184 _165_
*185 _166_
*186 _167_
*187 _168_
*188 _169_
*189 _170_
*190 _171_
*191 async_reset_inst\.reset_fifo\[0\]
*192 async_reset_inst\.reset_fifo\[1\]
*193 async_reset_inst\.reset_fifo\[2\]
*194 clknet_0_io_in[0]
*195 clknet_2_0__leaf_io_in[0]
*196 clknet_2_1__leaf_io_in[0]
*197 clknet_2_2__leaf_io_in[0]
*198 clknet_2_3__leaf_io_in[0]
*199 ledmatrix_driver_inst\.col_idx\[0\]
*200 ledmatrix_driver_inst\.col_idx\[1\]
*201 ledmatrix_driver_inst\.col_idx\[2\]
*202 ledmatrix_driver_inst\.led_color_inst\.pixel_offset\[0\]
*203 ledmatrix_driver_inst\.led_color_inst\.pixel_offset\[1\]
*204 ledmatrix_driver_inst\.led_color_inst\.pixel_offset\[2\]
*205 ledmatrix_driver_inst\.led_color_inst\.row_idx\[0\]
*206 ledmatrix_driver_inst\.led_color_inst\.row_idx\[1\]
*207 ledmatrix_driver_inst\.led_color_inst\.row_idx\[2\]
*208 ledmatrix_driver_inst\.mosi
*209 ledmatrix_driver_inst\.n_cs
*210 ledmatrix_driver_inst\.sclk
*211 ledmatrix_driver_inst\.spi_master_inst\.cs_delay_counter\[0\]
*212 ledmatrix_driver_inst\.spi_master_inst\.cs_delay_counter\[1\]
*213 ledmatrix_driver_inst\.spi_master_inst\.cs_delay_counter\[2\]
*214 ledmatrix_driver_inst\.spi_master_inst\.cs_delay_counter\[3\]
*215 ledmatrix_driver_inst\.spi_master_inst\.mosi_mask
*216 ledmatrix_driver_inst\.spi_master_inst\.state\[0\]
*217 ledmatrix_driver_inst\.spi_master_inst\.state\[1\]
*218 ledmatrix_driver_inst\.spi_master_inst\.state\[2\]
*219 ledmatrix_driver_inst\.spi_master_inst\.state\[3\]
*220 ledmatrix_driver_inst\.spi_master_inst\.tx_byte_reg\[0\]
*221 ledmatrix_driver_inst\.spi_master_inst\.tx_byte_reg\[1\]
*222 ledmatrix_driver_inst\.spi_master_inst\.tx_byte_reg\[2\]
*223 ledmatrix_driver_inst\.spi_master_inst\.tx_byte_reg\[3\]
*224 ledmatrix_driver_inst\.spi_master_inst\.tx_byte_reg\[4\]
*225 ledmatrix_driver_inst\.spi_master_inst\.tx_byte_reg\[5\]
*226 ledmatrix_driver_inst\.spi_master_inst\.tx_byte_reg\[6\]
*227 ledmatrix_driver_inst\.spi_master_inst\.tx_byte_reg\[7\]
*228 ledmatrix_driver_inst\.spi_master_inst\.tx_clear_cs
*229 ledmatrix_driver_inst\.spi_master_inst\.tx_clear_cs_reg
*230 ledmatrix_driver_inst\.spi_master_inst\.tx_counter_reg\[0\]
*231 ledmatrix_driver_inst\.spi_master_inst\.tx_counter_reg\[1\]
*232 ledmatrix_driver_inst\.spi_master_inst\.tx_counter_reg\[2\]
*233 ledmatrix_driver_inst\.spi_master_inst\.tx_ready
*234 ledmatrix_driver_inst\.spi_master_inst\.tx_valid
*235 ledmatrix_driver_inst\.state
*236 net1
*237 net2
*238 net4
*239 net5
*240 sevenseg_inst\.counter\[0\]
*241 sevenseg_inst\.counter\[1\]
*242 sevenseg_inst\.counter\[2\]
*243 sevenseg_inst\.counter\[3\]
*244 sevenseg_inst\.counter\[4\]
*245 sevenseg_inst\.counter\[5\]
*246 sevenseg_inst\.counter\[6\]
*247 sevenseg_inst\.counter\[7\]
*248 sevenseg_inst\.down
*249 sevenseg_inst\.left
*250 sevenseg_inst\.right
*251 sevenseg_inst\.state\[0\]
*252 sevenseg_inst\.state\[1\]
*253 sevenseg_inst\.up
*254 ANTENNA_1
*255 ANTENNA_2
*256 FILLER_0_109
*257 FILLER_0_113
*258 FILLER_0_125
*259 FILLER_0_137
*260 FILLER_0_141
*261 FILLER_0_15
*262 FILLER_0_153
*263 FILLER_0_165
*264 FILLER_0_169
*265 FILLER_0_181
*266 FILLER_0_19
*267 FILLER_0_193
*268 FILLER_0_197
*269 FILLER_0_209
*270 FILLER_0_221
*271 FILLER_0_225
*272 FILLER_0_23
*273 FILLER_0_237
*274 FILLER_0_249
*275 FILLER_0_253
*276 FILLER_0_265
*277 FILLER_0_27
*278 FILLER_0_277
*279 FILLER_0_281
*280 FILLER_0_29
*281 FILLER_0_293
*282 FILLER_0_3
*283 FILLER_0_39
*284 FILLER_0_51
*285 FILLER_0_55
*286 FILLER_0_57
*287 FILLER_0_69
*288 FILLER_0_81
*289 FILLER_0_85
*290 FILLER_0_97
*291 FILLER_10_109
*292 FILLER_10_121
*293 FILLER_10_133
*294 FILLER_10_139
*295 FILLER_10_141
*296 FILLER_10_15
*297 FILLER_10_153
*298 FILLER_10_165
*299 FILLER_10_177
*300 FILLER_10_189
*301 FILLER_10_195
*302 FILLER_10_197
*303 FILLER_10_209
*304 FILLER_10_221
*305 FILLER_10_233
*306 FILLER_10_245
*307 FILLER_10_251
*308 FILLER_10_253
*309 FILLER_10_265
*310 FILLER_10_27
*311 FILLER_10_277
*312 FILLER_10_289
*313 FILLER_10_29
*314 FILLER_10_297
*315 FILLER_10_3
*316 FILLER_10_41
*317 FILLER_10_53
*318 FILLER_10_65
*319 FILLER_10_71
*320 FILLER_10_83
*321 FILLER_10_85
*322 FILLER_10_97
*323 FILLER_11_108
*324 FILLER_11_11
*325 FILLER_11_113
*326 FILLER_11_125
*327 FILLER_11_137
*328 FILLER_11_149
*329 FILLER_11_161
*330 FILLER_11_167
*331 FILLER_11_169
*332 FILLER_11_181
*333 FILLER_11_193
*334 FILLER_11_205
*335 FILLER_11_217
*336 FILLER_11_223
*337 FILLER_11_225
*338 FILLER_11_237
*339 FILLER_11_249
*340 FILLER_11_261
*341 FILLER_11_273
*342 FILLER_11_279
*343 FILLER_11_28
*344 FILLER_11_281
*345 FILLER_11_293
*346 FILLER_11_3
*347 FILLER_11_40
*348 FILLER_11_52
*349 FILLER_11_57
*350 FILLER_11_69
*351 FILLER_11_77
*352 FILLER_11_84
*353 FILLER_11_96
*354 FILLER_12_110
*355 FILLER_12_122
*356 FILLER_12_134
*357 FILLER_12_141
*358 FILLER_12_153
*359 FILLER_12_165
*360 FILLER_12_177
*361 FILLER_12_189
*362 FILLER_12_195
*363 FILLER_12_197
*364 FILLER_12_209
*365 FILLER_12_21
*366 FILLER_12_221
*367 FILLER_12_233
*368 FILLER_12_245
*369 FILLER_12_251
*370 FILLER_12_253
*371 FILLER_12_265
*372 FILLER_12_27
*373 FILLER_12_277
*374 FILLER_12_289
*375 FILLER_12_29
*376 FILLER_12_297
*377 FILLER_12_3
*378 FILLER_12_47
*379 FILLER_12_59
*380 FILLER_12_71
*381 FILLER_12_83
*382 FILLER_12_85
*383 FILLER_12_98
*384 FILLER_13_103
*385 FILLER_13_111
*386 FILLER_13_113
*387 FILLER_13_125
*388 FILLER_13_137
*389 FILLER_13_14
*390 FILLER_13_149
*391 FILLER_13_161
*392 FILLER_13_167
*393 FILLER_13_169
*394 FILLER_13_181
*395 FILLER_13_193
*396 FILLER_13_205
*397 FILLER_13_217
*398 FILLER_13_22
*399 FILLER_13_223
*400 FILLER_13_225
*401 FILLER_13_237
*402 FILLER_13_249
*403 FILLER_13_261
*404 FILLER_13_273
*405 FILLER_13_279
*406 FILLER_13_281
*407 FILLER_13_293
*408 FILLER_13_3
*409 FILLER_13_39
*410 FILLER_13_51
*411 FILLER_13_55
*412 FILLER_13_57
*413 FILLER_13_67
*414 FILLER_13_79
*415 FILLER_13_9
*416 FILLER_13_91
*417 FILLER_14_109
*418 FILLER_14_121
*419 FILLER_14_133
*420 FILLER_14_139
*421 FILLER_14_141
*422 FILLER_14_153
*423 FILLER_14_165
*424 FILLER_14_174
*425 FILLER_14_186
*426 FILLER_14_194
*427 FILLER_14_197
*428 FILLER_14_209
*429 FILLER_14_21
*430 FILLER_14_221
*431 FILLER_14_233
*432 FILLER_14_245
*433 FILLER_14_251
*434 FILLER_14_253
*435 FILLER_14_265
*436 FILLER_14_27
*437 FILLER_14_277
*438 FILLER_14_289
*439 FILLER_14_29
*440 FILLER_14_297
*441 FILLER_14_3
*442 FILLER_14_47
*443 FILLER_14_59
*444 FILLER_14_71
*445 FILLER_14_83
*446 FILLER_14_85
*447 FILLER_14_97
*448 FILLER_15_105
*449 FILLER_15_111
*450 FILLER_15_113
*451 FILLER_15_121
*452 FILLER_15_125
*453 FILLER_15_137
*454 FILLER_15_149
*455 FILLER_15_161
*456 FILLER_15_167
*457 FILLER_15_169
*458 FILLER_15_181
*459 FILLER_15_193
*460 FILLER_15_205
*461 FILLER_15_217
*462 FILLER_15_223
*463 FILLER_15_225
*464 FILLER_15_237
*465 FILLER_15_249
*466 FILLER_15_26
*467 FILLER_15_261
*468 FILLER_15_273
*469 FILLER_15_279
*470 FILLER_15_281
*471 FILLER_15_293
*472 FILLER_15_3
*473 FILLER_15_38
*474 FILLER_15_50
*475 FILLER_15_57
*476 FILLER_15_69
*477 FILLER_15_81
*478 FILLER_15_9
*479 FILLER_15_93
*480 FILLER_16_103
*481 FILLER_16_115
*482 FILLER_16_127
*483 FILLER_16_139
*484 FILLER_16_141
*485 FILLER_16_153
*486 FILLER_16_165
*487 FILLER_16_177
*488 FILLER_16_189
*489 FILLER_16_195
*490 FILLER_16_197
*491 FILLER_16_209
*492 FILLER_16_221
*493 FILLER_16_233
*494 FILLER_16_245
*495 FILLER_16_251
*496 FILLER_16_253
*497 FILLER_16_26
*498 FILLER_16_265
*499 FILLER_16_277
*500 FILLER_16_289
*501 FILLER_16_29
*502 FILLER_16_297
*503 FILLER_16_3
*504 FILLER_16_47
*505 FILLER_16_59
*506 FILLER_16_73
*507 FILLER_16_81
*508 FILLER_16_85
*509 FILLER_16_9
*510 FILLER_16_95
*511 FILLER_17_106
*512 FILLER_17_113
*513 FILLER_17_118
*514 FILLER_17_130
*515 FILLER_17_142
*516 FILLER_17_154
*517 FILLER_17_166
*518 FILLER_17_169
*519 FILLER_17_181
*520 FILLER_17_193
*521 FILLER_17_205
*522 FILLER_17_217
*523 FILLER_17_22
*524 FILLER_17_223
*525 FILLER_17_225
*526 FILLER_17_237
*527 FILLER_17_249
*528 FILLER_17_261
*529 FILLER_17_273
*530 FILLER_17_279
*531 FILLER_17_28
*532 FILLER_17_281
*533 FILLER_17_293
*534 FILLER_17_3
*535 FILLER_17_49
*536 FILLER_17_55
*537 FILLER_17_57
*538 FILLER_17_66
*539 FILLER_17_78
*540 FILLER_17_83
*541 FILLER_17_9
*542 FILLER_17_90
*543 FILLER_18_105
*544 FILLER_18_117
*545 FILLER_18_129
*546 FILLER_18_137
*547 FILLER_18_141
*548 FILLER_18_153
*549 FILLER_18_165
*550 FILLER_18_177
*551 FILLER_18_189
*552 FILLER_18_195
*553 FILLER_18_197
*554 FILLER_18_209
*555 FILLER_18_21
*556 FILLER_18_221
*557 FILLER_18_233
*558 FILLER_18_245
*559 FILLER_18_251
*560 FILLER_18_253
*561 FILLER_18_265
*562 FILLER_18_27
*563 FILLER_18_277
*564 FILLER_18_289
*565 FILLER_18_29
*566 FILLER_18_297
*567 FILLER_18_3
*568 FILLER_18_48
*569 FILLER_18_61
*570 FILLER_18_69
*571 FILLER_18_78
*572 FILLER_18_85
*573 FILLER_18_93
*574 FILLER_19_102
*575 FILLER_19_110
*576 FILLER_19_113
*577 FILLER_19_125
*578 FILLER_19_137
*579 FILLER_19_149
*580 FILLER_19_161
*581 FILLER_19_167
*582 FILLER_19_169
*583 FILLER_19_181
*584 FILLER_19_193
*585 FILLER_19_205
*586 FILLER_19_21
*587 FILLER_19_217
*588 FILLER_19_223
*589 FILLER_19_225
*590 FILLER_19_237
*591 FILLER_19_249
*592 FILLER_19_261
*593 FILLER_19_273
*594 FILLER_19_279
*595 FILLER_19_281
*596 FILLER_19_29
*597 FILLER_19_293
*598 FILLER_19_3
*599 FILLER_19_33
*600 FILLER_19_51
*601 FILLER_19_55
*602 FILLER_19_57
*603 FILLER_19_71
*604 FILLER_19_81
*605 FILLER_19_90
*606 FILLER_1_105
*607 FILLER_1_111
*608 FILLER_1_113
*609 FILLER_1_125
*610 FILLER_1_13
*611 FILLER_1_137
*612 FILLER_1_149
*613 FILLER_1_161
*614 FILLER_1_167
*615 FILLER_1_169
*616 FILLER_1_181
*617 FILLER_1_193
*618 FILLER_1_205
*619 FILLER_1_217
*620 FILLER_1_223
*621 FILLER_1_225
*622 FILLER_1_237
*623 FILLER_1_249
*624 FILLER_1_261
*625 FILLER_1_273
*626 FILLER_1_279
*627 FILLER_1_281
*628 FILLER_1_293
*629 FILLER_1_3
*630 FILLER_1_35
*631 FILLER_1_47
*632 FILLER_1_55
*633 FILLER_1_57
*634 FILLER_1_63
*635 FILLER_1_75
*636 FILLER_1_87
*637 FILLER_1_9
*638 FILLER_1_93
*639 FILLER_1_98
*640 FILLER_20_100
*641 FILLER_20_108
*642 FILLER_20_114
*643 FILLER_20_126
*644 FILLER_20_138
*645 FILLER_20_141
*646 FILLER_20_153
*647 FILLER_20_165
*648 FILLER_20_177
*649 FILLER_20_189
*650 FILLER_20_195
*651 FILLER_20_197
*652 FILLER_20_209
*653 FILLER_20_221
*654 FILLER_20_23
*655 FILLER_20_233
*656 FILLER_20_245
*657 FILLER_20_251
*658 FILLER_20_253
*659 FILLER_20_265
*660 FILLER_20_27
*661 FILLER_20_277
*662 FILLER_20_289
*663 FILLER_20_29
*664 FILLER_20_297
*665 FILLER_20_3
*666 FILLER_20_33
*667 FILLER_20_37
*668 FILLER_20_55
*669 FILLER_20_62
*670 FILLER_20_71
*671 FILLER_20_79
*672 FILLER_20_83
*673 FILLER_20_85
*674 FILLER_20_90
*675 FILLER_20_94
*676 FILLER_21_101
*677 FILLER_21_109
*678 FILLER_21_113
*679 FILLER_21_12
*680 FILLER_21_121
*681 FILLER_21_133
*682 FILLER_21_145
*683 FILLER_21_157
*684 FILLER_21_165
*685 FILLER_21_169
*686 FILLER_21_181
*687 FILLER_21_193
*688 FILLER_21_205
*689 FILLER_21_217
*690 FILLER_21_223
*691 FILLER_21_225
*692 FILLER_21_237
*693 FILLER_21_249
*694 FILLER_21_261
*695 FILLER_21_273
*696 FILLER_21_279
*697 FILLER_21_281
*698 FILLER_21_293
*699 FILLER_21_3
*700 FILLER_21_36
*701 FILLER_21_48
*702 FILLER_21_57
*703 FILLER_21_75
*704 FILLER_21_85
*705 FILLER_21_93
*706 FILLER_22_108
*707 FILLER_22_117
*708 FILLER_22_127
*709 FILLER_22_139
*710 FILLER_22_141
*711 FILLER_22_154
*712 FILLER_22_166
*713 FILLER_22_178
*714 FILLER_22_190
*715 FILLER_22_197
*716 FILLER_22_209
*717 FILLER_22_221
*718 FILLER_22_233
*719 FILLER_22_245
*720 FILLER_22_251
*721 FILLER_22_253
*722 FILLER_22_26
*723 FILLER_22_265
*724 FILLER_22_277
*725 FILLER_22_289
*726 FILLER_22_29
*727 FILLER_22_297
*728 FILLER_22_3
*729 FILLER_22_54
*730 FILLER_22_75
*731 FILLER_22_82
*732 FILLER_22_85
*733 FILLER_22_9
*734 FILLER_22_91
*735 FILLER_22_99
*736 FILLER_23_100
*737 FILLER_23_106
*738 FILLER_23_113
*739 FILLER_23_124
*740 FILLER_23_142
*741 FILLER_23_15
*742 FILLER_23_154
*743 FILLER_23_166
*744 FILLER_23_169
*745 FILLER_23_181
*746 FILLER_23_193
*747 FILLER_23_205
*748 FILLER_23_217
*749 FILLER_23_223
*750 FILLER_23_225
*751 FILLER_23_237
*752 FILLER_23_249
*753 FILLER_23_261
*754 FILLER_23_273
*755 FILLER_23_279
*756 FILLER_23_281
*757 FILLER_23_293
*758 FILLER_23_3
*759 FILLER_23_36
*760 FILLER_23_48
*761 FILLER_23_57
*762 FILLER_23_78
*763 FILLER_23_92
*764 FILLER_24_104
*765 FILLER_24_116
*766 FILLER_24_128
*767 FILLER_24_141
*768 FILLER_24_153
*769 FILLER_24_165
*770 FILLER_24_177
*771 FILLER_24_189
*772 FILLER_24_195
*773 FILLER_24_197
*774 FILLER_24_209
*775 FILLER_24_221
*776 FILLER_24_233
*777 FILLER_24_245
*778 FILLER_24_251
*779 FILLER_24_253
*780 FILLER_24_26
*781 FILLER_24_265
*782 FILLER_24_277
*783 FILLER_24_289
*784 FILLER_24_29
*785 FILLER_24_297
*786 FILLER_24_3
*787 FILLER_24_35
*788 FILLER_24_60
*789 FILLER_24_67
*790 FILLER_24_78
*791 FILLER_24_85
*792 FILLER_24_9
*793 FILLER_24_95
*794 FILLER_25_107
*795 FILLER_25_111
*796 FILLER_25_113
*797 FILLER_25_125
*798 FILLER_25_137
*799 FILLER_25_149
*800 FILLER_25_15
*801 FILLER_25_161
*802 FILLER_25_167
*803 FILLER_25_169
*804 FILLER_25_181
*805 FILLER_25_193
*806 FILLER_25_205
*807 FILLER_25_217
*808 FILLER_25_223
*809 FILLER_25_225
*810 FILLER_25_237
*811 FILLER_25_249
*812 FILLER_25_261
*813 FILLER_25_273
*814 FILLER_25_279
*815 FILLER_25_281
*816 FILLER_25_293
*817 FILLER_25_3
*818 FILLER_25_32
*819 FILLER_25_44
*820 FILLER_25_57
*821 FILLER_25_70
*822 FILLER_25_80
*823 FILLER_25_84
*824 FILLER_25_91
*825 FILLER_25_99
*826 FILLER_26_108
*827 FILLER_26_119
*828 FILLER_26_131
*829 FILLER_26_139
*830 FILLER_26_141
*831 FILLER_26_153
*832 FILLER_26_165
*833 FILLER_26_177
*834 FILLER_26_189
*835 FILLER_26_195
*836 FILLER_26_197
*837 FILLER_26_209
*838 FILLER_26_21
*839 FILLER_26_221
*840 FILLER_26_233
*841 FILLER_26_245
*842 FILLER_26_251
*843 FILLER_26_253
*844 FILLER_26_265
*845 FILLER_26_27
*846 FILLER_26_277
*847 FILLER_26_289
*848 FILLER_26_29
*849 FILLER_26_297
*850 FILLER_26_3
*851 FILLER_26_41
*852 FILLER_26_47
*853 FILLER_26_59
*854 FILLER_26_70
*855 FILLER_26_82
*856 FILLER_26_85
*857 FILLER_26_9
*858 FILLER_26_91
*859 FILLER_26_97
*860 FILLER_27_100
*861 FILLER_27_107
*862 FILLER_27_111
*863 FILLER_27_113
*864 FILLER_27_121
*865 FILLER_27_130
*866 FILLER_27_142
*867 FILLER_27_154
*868 FILLER_27_166
*869 FILLER_27_169
*870 FILLER_27_181
*871 FILLER_27_193
*872 FILLER_27_205
*873 FILLER_27_21
*874 FILLER_27_217
*875 FILLER_27_223
*876 FILLER_27_225
*877 FILLER_27_237
*878 FILLER_27_249
*879 FILLER_27_261
*880 FILLER_27_273
*881 FILLER_27_279
*882 FILLER_27_281
*883 FILLER_27_293
*884 FILLER_27_3
*885 FILLER_27_33
*886 FILLER_27_52
*887 FILLER_27_57
*888 FILLER_27_69
*889 FILLER_27_73
*890 FILLER_27_80
*891 FILLER_27_84
*892 FILLER_27_92
*893 FILLER_28_101
*894 FILLER_28_108
*895 FILLER_28_116
*896 FILLER_28_125
*897 FILLER_28_136
*898 FILLER_28_141
*899 FILLER_28_153
*900 FILLER_28_165
*901 FILLER_28_177
*902 FILLER_28_189
*903 FILLER_28_195
*904 FILLER_28_197
*905 FILLER_28_209
*906 FILLER_28_221
*907 FILLER_28_233
*908 FILLER_28_245
*909 FILLER_28_251
*910 FILLER_28_253
*911 FILLER_28_26
*912 FILLER_28_265
*913 FILLER_28_277
*914 FILLER_28_289
*915 FILLER_28_29
*916 FILLER_28_297
*917 FILLER_28_3
*918 FILLER_28_37
*919 FILLER_28_55
*920 FILLER_28_67
*921 FILLER_28_79
*922 FILLER_28_83
*923 FILLER_28_85
*924 FILLER_28_9
*925 FILLER_28_97
*926 FILLER_29_10
*927 FILLER_29_106
*928 FILLER_29_113
*929 FILLER_29_125
*930 FILLER_29_137
*931 FILLER_29_149
*932 FILLER_29_16
*933 FILLER_29_161
*934 FILLER_29_167
*935 FILLER_29_169
*936 FILLER_29_181
*937 FILLER_29_193
*938 FILLER_29_205
*939 FILLER_29_217
*940 FILLER_29_223
*941 FILLER_29_225
*942 FILLER_29_237
*943 FILLER_29_249
*944 FILLER_29_261
*945 FILLER_29_273
*946 FILLER_29_279
*947 FILLER_29_281
*948 FILLER_29_293
*949 FILLER_29_3
*950 FILLER_29_33
*951 FILLER_29_54
*952 FILLER_29_57
*953 FILLER_29_66
*954 FILLER_29_76
*955 FILLER_29_83
*956 FILLER_29_91
*957 FILLER_29_97
*958 FILLER_2_109
*959 FILLER_2_121
*960 FILLER_2_133
*961 FILLER_2_139
*962 FILLER_2_141
*963 FILLER_2_153
*964 FILLER_2_165
*965 FILLER_2_177
*966 FILLER_2_189
*967 FILLER_2_195
*968 FILLER_2_197
*969 FILLER_2_209
*970 FILLER_2_21
*971 FILLER_2_221
*972 FILLER_2_233
*973 FILLER_2_245
*974 FILLER_2_251
*975 FILLER_2_253
*976 FILLER_2_265
*977 FILLER_2_27
*978 FILLER_2_277
*979 FILLER_2_289
*980 FILLER_2_29
*981 FILLER_2_297
*982 FILLER_2_3
*983 FILLER_2_52
*984 FILLER_2_64
*985 FILLER_2_75
*986 FILLER_2_83
*987 FILLER_2_85
*988 FILLER_2_97
*989 FILLER_30_102
*990 FILLER_30_114
*991 FILLER_30_125
*992 FILLER_30_137
*993 FILLER_30_141
*994 FILLER_30_153
*995 FILLER_30_165
*996 FILLER_30_177
*997 FILLER_30_189
*998 FILLER_30_195
*999 FILLER_30_197
*1000 FILLER_30_209
*1001 FILLER_30_22
*1002 FILLER_30_221
*1003 FILLER_30_233
*1004 FILLER_30_245
*1005 FILLER_30_251
*1006 FILLER_30_253
*1007 FILLER_30_265
*1008 FILLER_30_277
*1009 FILLER_30_289
*1010 FILLER_30_29
*1011 FILLER_30_297
*1012 FILLER_30_3
*1013 FILLER_30_37
*1014 FILLER_30_55
*1015 FILLER_30_66
*1016 FILLER_30_78
*1017 FILLER_30_85
*1018 FILLER_30_90
*1019 FILLER_31_101
*1020 FILLER_31_109
*1021 FILLER_31_11
*1022 FILLER_31_113
*1023 FILLER_31_121
*1024 FILLER_31_133
*1025 FILLER_31_145
*1026 FILLER_31_157
*1027 FILLER_31_165
*1028 FILLER_31_169
*1029 FILLER_31_17
*1030 FILLER_31_181
*1031 FILLER_31_193
*1032 FILLER_31_205
*1033 FILLER_31_217
*1034 FILLER_31_223
*1035 FILLER_31_225
*1036 FILLER_31_237
*1037 FILLER_31_249
*1038 FILLER_31_261
*1039 FILLER_31_273
*1040 FILLER_31_279
*1041 FILLER_31_281
*1042 FILLER_31_293
*1043 FILLER_31_3
*1044 FILLER_31_34
*1045 FILLER_31_54
*1046 FILLER_31_57
*1047 FILLER_31_63
*1048 FILLER_31_68
*1049 FILLER_31_76
*1050 FILLER_31_81
*1051 FILLER_31_85
*1052 FILLER_31_90
*1053 FILLER_32_101
*1054 FILLER_32_107
*1055 FILLER_32_113
*1056 FILLER_32_122
*1057 FILLER_32_134
*1058 FILLER_32_141
*1059 FILLER_32_153
*1060 FILLER_32_165
*1061 FILLER_32_177
*1062 FILLER_32_189
*1063 FILLER_32_195
*1064 FILLER_32_197
*1065 FILLER_32_209
*1066 FILLER_32_22
*1067 FILLER_32_221
*1068 FILLER_32_233
*1069 FILLER_32_245
*1070 FILLER_32_251
*1071 FILLER_32_253
*1072 FILLER_32_265
*1073 FILLER_32_277
*1074 FILLER_32_289
*1075 FILLER_32_29
*1076 FILLER_32_297
*1077 FILLER_32_3
*1078 FILLER_32_37
*1079 FILLER_32_54
*1080 FILLER_32_62
*1081 FILLER_32_71
*1082 FILLER_32_81
*1083 FILLER_32_85
*1084 FILLER_32_90
*1085 FILLER_33_106
*1086 FILLER_33_113
*1087 FILLER_33_125
*1088 FILLER_33_137
*1089 FILLER_33_14
*1090 FILLER_33_149
*1091 FILLER_33_161
*1092 FILLER_33_167
*1093 FILLER_33_169
*1094 FILLER_33_181
*1095 FILLER_33_193
*1096 FILLER_33_205
*1097 FILLER_33_217
*1098 FILLER_33_22
*1099 FILLER_33_223
*1100 FILLER_33_225
*1101 FILLER_33_237
*1102 FILLER_33_249
*1103 FILLER_33_261
*1104 FILLER_33_273
*1105 FILLER_33_279
*1106 FILLER_33_281
*1107 FILLER_33_293
*1108 FILLER_33_3
*1109 FILLER_33_34
*1110 FILLER_33_46
*1111 FILLER_33_53
*1112 FILLER_33_57
*1113 FILLER_33_61
*1114 FILLER_33_65
*1115 FILLER_33_77
*1116 FILLER_33_89
*1117 FILLER_33_9
*1118 FILLER_33_99
*1119 FILLER_34_102
*1120 FILLER_34_11
*1121 FILLER_34_114
*1122 FILLER_34_120
*1123 FILLER_34_128
*1124 FILLER_34_141
*1125 FILLER_34_15
*1126 FILLER_34_150
*1127 FILLER_34_162
*1128 FILLER_34_174
*1129 FILLER_34_186
*1130 FILLER_34_194
*1131 FILLER_34_197
*1132 FILLER_34_209
*1133 FILLER_34_221
*1134 FILLER_34_233
*1135 FILLER_34_245
*1136 FILLER_34_251
*1137 FILLER_34_253
*1138 FILLER_34_265
*1139 FILLER_34_27
*1140 FILLER_34_277
*1141 FILLER_34_289
*1142 FILLER_34_29
*1143 FILLER_34_297
*1144 FILLER_34_3
*1145 FILLER_34_41
*1146 FILLER_34_55
*1147 FILLER_34_67
*1148 FILLER_34_79
*1149 FILLER_34_83
*1150 FILLER_34_85
*1151 FILLER_34_93
*1152 FILLER_35_101
*1153 FILLER_35_107
*1154 FILLER_35_111
*1155 FILLER_35_113
*1156 FILLER_35_119
*1157 FILLER_35_131
*1158 FILLER_35_142
*1159 FILLER_35_15
*1160 FILLER_35_154
*1161 FILLER_35_166
*1162 FILLER_35_169
*1163 FILLER_35_181
*1164 FILLER_35_193
*1165 FILLER_35_205
*1166 FILLER_35_217
*1167 FILLER_35_223
*1168 FILLER_35_225
*1169 FILLER_35_23
*1170 FILLER_35_237
*1171 FILLER_35_249
*1172 FILLER_35_261
*1173 FILLER_35_273
*1174 FILLER_35_279
*1175 FILLER_35_281
*1176 FILLER_35_293
*1177 FILLER_35_3
*1178 FILLER_35_35
*1179 FILLER_35_43
*1180 FILLER_35_52
*1181 FILLER_35_57
*1182 FILLER_35_62
*1183 FILLER_35_74
*1184 FILLER_35_86
*1185 FILLER_35_95
*1186 FILLER_36_105
*1187 FILLER_36_116
*1188 FILLER_36_135
*1189 FILLER_36_139
*1190 FILLER_36_141
*1191 FILLER_36_15
*1192 FILLER_36_153
*1193 FILLER_36_165
*1194 FILLER_36_177
*1195 FILLER_36_189
*1196 FILLER_36_195
*1197 FILLER_36_197
*1198 FILLER_36_209
*1199 FILLER_36_221
*1200 FILLER_36_233
*1201 FILLER_36_245
*1202 FILLER_36_251
*1203 FILLER_36_253
*1204 FILLER_36_265
*1205 FILLER_36_27
*1206 FILLER_36_277
*1207 FILLER_36_289
*1208 FILLER_36_29
*1209 FILLER_36_297
*1210 FILLER_36_3
*1211 FILLER_36_38
*1212 FILLER_36_46
*1213 FILLER_36_53
*1214 FILLER_36_65
*1215 FILLER_36_73
*1216 FILLER_36_77
*1217 FILLER_36_82
*1218 FILLER_36_85
*1219 FILLER_36_98
*1220 FILLER_37_111
*1221 FILLER_37_113
*1222 FILLER_37_122
*1223 FILLER_37_134
*1224 FILLER_37_146
*1225 FILLER_37_15
*1226 FILLER_37_158
*1227 FILLER_37_166
*1228 FILLER_37_169
*1229 FILLER_37_181
*1230 FILLER_37_193
*1231 FILLER_37_205
*1232 FILLER_37_217
*1233 FILLER_37_223
*1234 FILLER_37_225
*1235 FILLER_37_237
*1236 FILLER_37_249
*1237 FILLER_37_261
*1238 FILLER_37_27
*1239 FILLER_37_273
*1240 FILLER_37_279
*1241 FILLER_37_281
*1242 FILLER_37_293
*1243 FILLER_37_3
*1244 FILLER_37_39
*1245 FILLER_37_45
*1246 FILLER_37_52
*1247 FILLER_37_57
*1248 FILLER_37_65
*1249 FILLER_37_83
*1250 FILLER_37_91
*1251 FILLER_37_99
*1252 FILLER_38_105
*1253 FILLER_38_117
*1254 FILLER_38_128
*1255 FILLER_38_141
*1256 FILLER_38_15
*1257 FILLER_38_151
*1258 FILLER_38_163
*1259 FILLER_38_175
*1260 FILLER_38_187
*1261 FILLER_38_195
*1262 FILLER_38_197
*1263 FILLER_38_209
*1264 FILLER_38_221
*1265 FILLER_38_233
*1266 FILLER_38_245
*1267 FILLER_38_251
*1268 FILLER_38_253
*1269 FILLER_38_265
*1270 FILLER_38_27
*1271 FILLER_38_277
*1272 FILLER_38_289
*1273 FILLER_38_29
*1274 FILLER_38_297
*1275 FILLER_38_3
*1276 FILLER_38_41
*1277 FILLER_38_45
*1278 FILLER_38_49
*1279 FILLER_38_59
*1280 FILLER_38_71
*1281 FILLER_38_83
*1282 FILLER_38_85
*1283 FILLER_38_91
*1284 FILLER_38_99
*1285 FILLER_39_106
*1286 FILLER_39_113
*1287 FILLER_39_122
*1288 FILLER_39_134
*1289 FILLER_39_146
*1290 FILLER_39_15
*1291 FILLER_39_158
*1292 FILLER_39_166
*1293 FILLER_39_169
*1294 FILLER_39_181
*1295 FILLER_39_193
*1296 FILLER_39_205
*1297 FILLER_39_217
*1298 FILLER_39_223
*1299 FILLER_39_225
*1300 FILLER_39_237
*1301 FILLER_39_249
*1302 FILLER_39_261
*1303 FILLER_39_27
*1304 FILLER_39_273
*1305 FILLER_39_279
*1306 FILLER_39_281
*1307 FILLER_39_293
*1308 FILLER_39_3
*1309 FILLER_39_31
*1310 FILLER_39_38
*1311 FILLER_39_50
*1312 FILLER_39_57
*1313 FILLER_39_67
*1314 FILLER_39_73
*1315 FILLER_39_80
*1316 FILLER_39_97
*1317 FILLER_3_105
*1318 FILLER_3_111
*1319 FILLER_3_113
*1320 FILLER_3_125
*1321 FILLER_3_137
*1322 FILLER_3_149
*1323 FILLER_3_161
*1324 FILLER_3_167
*1325 FILLER_3_169
*1326 FILLER_3_181
*1327 FILLER_3_193
*1328 FILLER_3_205
*1329 FILLER_3_21
*1330 FILLER_3_217
*1331 FILLER_3_223
*1332 FILLER_3_225
*1333 FILLER_3_237
*1334 FILLER_3_249
*1335 FILLER_3_261
*1336 FILLER_3_273
*1337 FILLER_3_279
*1338 FILLER_3_281
*1339 FILLER_3_293
*1340 FILLER_3_3
*1341 FILLER_3_43
*1342 FILLER_3_55
*1343 FILLER_3_57
*1344 FILLER_3_69
*1345 FILLER_3_81
*1346 FILLER_3_93
*1347 FILLER_40_102
*1348 FILLER_40_114
*1349 FILLER_40_126
*1350 FILLER_40_138
*1351 FILLER_40_141
*1352 FILLER_40_15
*1353 FILLER_40_153
*1354 FILLER_40_165
*1355 FILLER_40_177
*1356 FILLER_40_189
*1357 FILLER_40_195
*1358 FILLER_40_197
*1359 FILLER_40_209
*1360 FILLER_40_221
*1361 FILLER_40_233
*1362 FILLER_40_245
*1363 FILLER_40_251
*1364 FILLER_40_253
*1365 FILLER_40_265
*1366 FILLER_40_27
*1367 FILLER_40_277
*1368 FILLER_40_289
*1369 FILLER_40_29
*1370 FILLER_40_297
*1371 FILLER_40_3
*1372 FILLER_40_46
*1373 FILLER_40_59
*1374 FILLER_40_69
*1375 FILLER_40_81
*1376 FILLER_40_85
*1377 FILLER_40_90
*1378 FILLER_41_108
*1379 FILLER_41_113
*1380 FILLER_41_12
*1381 FILLER_41_122
*1382 FILLER_41_141
*1383 FILLER_41_153
*1384 FILLER_41_165
*1385 FILLER_41_169
*1386 FILLER_41_181
*1387 FILLER_41_193
*1388 FILLER_41_20
*1389 FILLER_41_205
*1390 FILLER_41_217
*1391 FILLER_41_223
*1392 FILLER_41_225
*1393 FILLER_41_237
*1394 FILLER_41_249
*1395 FILLER_41_261
*1396 FILLER_41_273
*1397 FILLER_41_279
*1398 FILLER_41_281
*1399 FILLER_41_293
*1400 FILLER_41_3
*1401 FILLER_41_30
*1402 FILLER_41_42
*1403 FILLER_41_46
*1404 FILLER_41_50
*1405 FILLER_41_57
*1406 FILLER_41_63
*1407 FILLER_41_75
*1408 FILLER_41_87
*1409 FILLER_41_95
*1410 FILLER_42_103
*1411 FILLER_42_115
*1412 FILLER_42_127
*1413 FILLER_42_139
*1414 FILLER_42_141
*1415 FILLER_42_15
*1416 FILLER_42_153
*1417 FILLER_42_165
*1418 FILLER_42_177
*1419 FILLER_42_189
*1420 FILLER_42_195
*1421 FILLER_42_197
*1422 FILLER_42_209
*1423 FILLER_42_21
*1424 FILLER_42_221
*1425 FILLER_42_233
*1426 FILLER_42_245
*1427 FILLER_42_251
*1428 FILLER_42_253
*1429 FILLER_42_265
*1430 FILLER_42_27
*1431 FILLER_42_277
*1432 FILLER_42_289
*1433 FILLER_42_29
*1434 FILLER_42_297
*1435 FILLER_42_3
*1436 FILLER_42_41
*1437 FILLER_42_53
*1438 FILLER_42_62
*1439 FILLER_42_70
*1440 FILLER_42_78
*1441 FILLER_42_85
*1442 FILLER_42_91
*1443 FILLER_43_109
*1444 FILLER_43_113
*1445 FILLER_43_125
*1446 FILLER_43_137
*1447 FILLER_43_149
*1448 FILLER_43_15
*1449 FILLER_43_161
*1450 FILLER_43_167
*1451 FILLER_43_169
*1452 FILLER_43_181
*1453 FILLER_43_193
*1454 FILLER_43_205
*1455 FILLER_43_217
*1456 FILLER_43_223
*1457 FILLER_43_225
*1458 FILLER_43_237
*1459 FILLER_43_249
*1460 FILLER_43_261
*1461 FILLER_43_27
*1462 FILLER_43_273
*1463 FILLER_43_279
*1464 FILLER_43_281
*1465 FILLER_43_293
*1466 FILLER_43_3
*1467 FILLER_43_39
*1468 FILLER_43_45
*1469 FILLER_43_49
*1470 FILLER_43_55
*1471 FILLER_43_57
*1472 FILLER_43_73
*1473 FILLER_43_80
*1474 FILLER_43_84
*1475 FILLER_43_89
*1476 FILLER_43_97
*1477 FILLER_44_103
*1478 FILLER_44_115
*1479 FILLER_44_127
*1480 FILLER_44_139
*1481 FILLER_44_141
*1482 FILLER_44_15
*1483 FILLER_44_153
*1484 FILLER_44_165
*1485 FILLER_44_177
*1486 FILLER_44_189
*1487 FILLER_44_195
*1488 FILLER_44_197
*1489 FILLER_44_209
*1490 FILLER_44_221
*1491 FILLER_44_233
*1492 FILLER_44_245
*1493 FILLER_44_251
*1494 FILLER_44_253
*1495 FILLER_44_265
*1496 FILLER_44_27
*1497 FILLER_44_277
*1498 FILLER_44_289
*1499 FILLER_44_29
*1500 FILLER_44_297
*1501 FILLER_44_3
*1502 FILLER_44_41
*1503 FILLER_44_53
*1504 FILLER_44_59
*1505 FILLER_44_71
*1506 FILLER_44_82
*1507 FILLER_44_85
*1508 FILLER_44_91
*1509 FILLER_45_100
*1510 FILLER_45_113
*1511 FILLER_45_125
*1512 FILLER_45_137
*1513 FILLER_45_149
*1514 FILLER_45_15
*1515 FILLER_45_161
*1516 FILLER_45_167
*1517 FILLER_45_169
*1518 FILLER_45_181
*1519 FILLER_45_193
*1520 FILLER_45_205
*1521 FILLER_45_217
*1522 FILLER_45_223
*1523 FILLER_45_225
*1524 FILLER_45_237
*1525 FILLER_45_24
*1526 FILLER_45_249
*1527 FILLER_45_261
*1528 FILLER_45_273
*1529 FILLER_45_279
*1530 FILLER_45_281
*1531 FILLER_45_293
*1532 FILLER_45_3
*1533 FILLER_45_36
*1534 FILLER_45_48
*1535 FILLER_45_54
*1536 FILLER_45_57
*1537 FILLER_45_64
*1538 FILLER_45_76
*1539 FILLER_45_88
*1540 FILLER_46_109
*1541 FILLER_46_12
*1542 FILLER_46_121
*1543 FILLER_46_133
*1544 FILLER_46_139
*1545 FILLER_46_141
*1546 FILLER_46_153
*1547 FILLER_46_165
*1548 FILLER_46_177
*1549 FILLER_46_189
*1550 FILLER_46_195
*1551 FILLER_46_197
*1552 FILLER_46_209
*1553 FILLER_46_221
*1554 FILLER_46_233
*1555 FILLER_46_24
*1556 FILLER_46_245
*1557 FILLER_46_251
*1558 FILLER_46_253
*1559 FILLER_46_265
*1560 FILLER_46_277
*1561 FILLER_46_289
*1562 FILLER_46_29
*1563 FILLER_46_297
*1564 FILLER_46_3
*1565 FILLER_46_41