*SPEF "ieee 1481-1999"
*DESIGN "moonbase_cpu_4bit"
*DATE "11:11:11 Fri 11 11, 1111"
*VENDOR "OpenRCX"
*PROGRAM "Parallel Extraction"
*VERSION "1.0"
*DESIGN_FLOW "NAME_SCOPE LOCAL" "PIN_CAP NONE"
*DIVIDER /
*DELIMITER :
*BUS_DELIMITER []
*T_UNIT 1 NS
*C_UNIT 1 PF
*R_UNIT 1 OHM
*L_UNIT 1 HENRY

*NAME_MAP
*1 io_in[0]
*2 io_in[1]
*3 io_in[2]
*4 io_in[3]
*5 io_in[4]
*6 io_in[5]
*7 io_in[6]
*8 io_in[7]
*9 io_out[0]
*10 io_out[1]
*11 io_out[2]
*12 io_out[3]
*13 io_out[4]
*14 io_out[5]
*15 io_out[6]
*16 io_out[7]
*19 _0000_
*20 _0001_
*21 _0002_
*22 _0003_
*23 _0004_
*24 _0005_
*25 _0006_
*26 _0007_
*27 _0008_
*28 _0009_
*29 _0010_
*30 _0011_
*31 _0012_
*32 _0013_
*33 _0014_
*34 _0015_
*35 _0016_
*36 _0017_
*37 _0018_
*38 _0019_
*39 _0020_
*40 _0021_
*41 _0022_
*42 _0023_
*43 _0024_
*44 _0025_
*45 _0026_
*46 _0027_
*47 _0028_
*48 _0029_
*49 _0030_
*50 _0031_
*51 _0032_
*52 _0033_
*53 _0034_
*54 _0035_
*55 _0036_
*56 _0037_
*57 _0038_
*58 _0039_
*59 _0040_
*60 _0041_
*61 _0042_
*62 _0043_
*63 _0044_
*64 _0045_
*65 _0046_
*66 _0047_
*67 _0048_
*68 _0049_
*69 _0050_
*70 _0051_
*71 _0052_
*72 _0053_
*73 _0054_
*74 _0055_
*75 _0056_
*76 _0057_
*77 _0058_
*78 _0059_
*79 _0060_
*80 _0061_
*81 _0062_
*82 _0063_
*83 _0064_
*84 _0065_
*85 _0066_
*86 _0067_
*87 _0068_
*88 _0069_
*89 _0070_
*90 _0071_
*91 _0072_
*92 _0073_
*93 _0074_
*94 _0075_
*95 _0076_
*96 _0077_
*97 _0078_
*98 _0079_
*99 _0080_
*100 _0081_
*101 _0082_
*102 _0083_
*103 _0084_
*104 _0085_
*105 _0086_
*106 _0087_
*107 _0088_
*108 _0089_
*109 _0090_
*110 _0091_
*111 _0092_
*112 _0093_
*113 _0094_
*114 _0095_
*115 _0096_
*116 _0097_
*117 _0098_
*118 _0099_
*119 _0100_
*120 _0101_
*121 _0102_
*122 _0103_
*123 _0104_
*124 _0105_
*125 _0106_
*126 _0107_
*127 _0108_
*128 _0109_
*129 _0110_
*130 _0111_
*131 _0112_
*132 _0113_
*133 _0114_
*134 _0115_
*135 _0116_
*136 _0117_
*137 _0118_
*138 _0119_
*139 _0120_
*140 _0121_
*141 _0122_
*142 _0123_
*143 _0124_
*144 _0125_
*145 _0126_
*146 _0127_
*147 _0128_
*148 _0129_
*149 _0130_
*150 _0131_
*151 _0132_
*152 _0133_
*153 _0134_
*154 _0135_
*155 _0136_
*156 _0137_
*157 _0138_
*158 _0139_
*159 _0140_
*160 _0141_
*161 _0142_
*162 _0143_
*163 _0144_
*164 _0145_
*165 _0146_
*166 _0147_
*167 _0148_
*168 _0149_
*169 _0150_
*170 _0151_
*171 _0152_
*172 _0153_
*173 _0154_
*174 _0155_
*175 _0156_
*176 _0157_
*177 _0158_
*178 _0159_
*179 _0160_
*180 _0161_
*181 _0162_
*182 _0163_
*183 _0164_
*184 _0165_
*185 _0166_
*186 _0167_
*187 _0168_
*188 _0169_
*189 _0170_
*190 _0171_
*191 _0172_
*192 _0173_
*193 _0174_
*194 _0175_
*195 _0176_
*196 _0177_
*197 _0178_
*198 _0179_
*199 _0180_
*200 _0181_
*201 _0182_
*202 _0183_
*203 _0184_
*204 _0185_
*205 _0186_
*206 _0187_
*207 _0188_
*208 _0189_
*209 _0190_
*210 _0191_
*211 _0192_
*212 _0193_
*213 _0194_
*214 _0195_
*215 _0196_
*216 _0197_
*217 _0198_
*218 _0199_
*219 _0200_
*220 _0201_
*221 _0202_
*222 _0203_
*223 _0204_
*224 _0205_
*225 _0206_
*226 _0207_
*227 _0208_
*228 _0209_
*229 _0210_
*230 _0211_
*231 _0212_
*232 _0213_
*233 _0214_
*234 _0215_
*235 _0216_
*236 _0217_
*237 _0218_
*238 _0219_
*239 _0220_
*240 _0221_
*241 _0222_
*242 _0223_
*243 _0224_
*244 _0225_
*245 _0226_
*246 _0227_
*247 _0228_
*248 _0229_
*249 _0230_
*250 _0231_
*251 _0232_
*252 _0233_
*253 _0234_
*254 _0235_
*255 _0236_
*256 _0237_
*257 _0238_
*258 _0239_
*259 _0240_
*260 _0241_
*261 _0242_
*262 _0243_
*263 _0244_
*264 _0245_
*265 _0246_
*266 _0247_
*267 _0248_
*268 _0249_
*269 _0250_
*270 _0251_
*271 _0252_
*272 _0253_
*273 _0254_
*274 _0255_
*275 _0256_
*276 _0257_
*277 _0258_
*278 _0259_
*279 _0260_
*280 _0261_
*281 _0262_
*282 _0263_
*283 _0264_
*284 _0265_
*285 _0266_
*286 _0267_
*287 _0268_
*288 _0269_
*289 _0270_
*290 _0271_
*291 _0272_
*292 _0273_
*293 _0274_
*294 _0275_
*295 _0276_
*296 _0277_
*297 _0278_
*298 _0279_
*299 _0280_
*300 _0281_
*301 _0282_
*302 _0283_
*303 _0284_
*304 _0285_
*305 _0286_
*306 _0287_
*307 _0288_
*308 _0289_
*309 _0290_
*310 _0291_
*311 _0292_
*312 _0293_
*313 _0294_
*314 _0295_
*315 _0296_
*316 _0297_
*317 _0298_
*318 _0299_
*319 _0300_
*320 _0301_
*321 _0302_
*322 _0303_
*323 _0304_
*324 _0305_
*325 _0306_
*326 _0307_
*327 _0308_
*328 _0309_
*329 _0310_
*330 _0311_
*331 _0312_
*332 _0313_
*333 _0314_
*334 _0315_
*335 _0316_
*336 _0317_
*337 _0318_
*338 _0319_
*339 _0320_
*340 _0321_
*341 _0322_
*342 _0323_
*343 _0324_
*344 _0325_
*345 _0326_
*346 _0327_
*347 _0328_
*348 _0329_
*349 _0330_
*350 _0331_
*351 _0332_
*352 _0333_
*353 _0334_
*354 _0335_
*355 _0336_
*356 _0337_
*357 _0338_
*358 _0339_
*359 _0340_
*360 _0341_
*361 _0342_
*362 _0343_
*363 _0344_
*364 _0345_
*365 _0346_
*366 _0347_
*367 _0348_
*368 _0349_
*369 _0350_
*370 _0351_
*371 _0352_
*372 _0353_
*373 _0354_
*374 _0355_
*375 _0356_
*376 _0357_
*377 _0358_
*378 _0359_
*379 _0360_
*380 _0361_
*381 _0362_
*382 _0363_
*383 _0364_
*384 _0365_
*385 _0366_
*386 _0367_
*387 _0368_
*388 _0369_
*389 _0370_
*390 _0371_
*391 _0372_
*392 _0373_
*393 _0374_
*394 _0375_
*395 _0376_
*396 _0377_
*397 _0378_
*398 _0379_
*399 _0380_
*400 _0381_
*401 _0382_
*402 _0383_
*403 _0384_
*404 _0385_
*405 _0386_
*406 _0387_
*407 _0388_
*408 _0389_
*409 _0390_
*410 _0391_
*411 _0392_
*412 _0393_
*413 _0394_
*414 _0395_
*415 _0396_
*416 _0397_
*417 _0398_
*418 _0399_
*419 _0400_
*420 _0401_
*421 _0402_
*422 _0403_
*423 _0404_
*424 _0405_
*425 _0406_
*426 _0407_
*427 _0408_
*428 _0409_
*429 _0410_
*430 _0411_
*431 _0412_
*432 _0413_
*433 _0414_
*434 _0415_
*435 _0416_
*436 _0417_
*437 _0418_
*438 _0419_
*439 _0420_
*440 _0421_
*441 _0422_
*442 _0423_
*443 _0424_
*444 _0425_
*445 _0426_
*446 _0427_
*447 _0428_
*448 _0429_
*449 _0430_
*450 _0431_
*451 _0432_
*452 _0433_
*453 _0434_
*454 _0435_
*455 _0436_
*456 _0437_
*457 _0438_
*458 _0439_
*459 _0440_
*460 _0441_
*461 _0442_
*462 _0443_
*463 _0444_
*464 _0445_
*465 _0446_
*466 _0447_
*467 _0448_
*468 _0449_
*469 _0450_
*470 _0451_
*471 _0452_
*472 _0453_
*473 _0454_
*474 _0455_
*475 _0456_
*476 _0457_
*477 _0458_
*478 _0459_
*479 _0460_
*480 _0461_
*481 _0462_
*482 _0463_
*483 _0464_
*484 _0465_
*485 _0466_
*486 _0467_
*487 _0468_
*488 _0469_
*489 _0470_
*490 _0471_
*491 _0472_
*492 _0473_
*493 _0474_
*494 _0475_
*495 _0476_
*496 _0477_
*497 _0478_
*498 _0479_
*499 _0480_
*500 _0481_
*501 _0482_
*502 _0483_
*503 _0484_
*504 _0485_
*505 _0486_
*506 _0487_
*507 _0488_
*508 _0489_
*509 _0490_
*510 _0491_
*511 _0492_
*512 _0493_
*513 _0494_
*514 _0495_
*515 _0496_
*516 _0497_
*517 _0498_
*518 _0499_
*519 _0500_
*520 _0501_
*521 _0502_
*522 _0503_
*523 _0504_
*524 _0505_
*525 _0506_
*526 _0507_
*527 _0508_
*528 _0509_
*529 _0510_
*530 _0511_
*531 _0512_
*532 _0513_
*533 _0514_
*534 _0515_
*535 _0516_
*536 _0517_
*537 _0518_
*538 _0519_
*539 _0520_
*540 _0521_
*541 _0522_
*542 _0523_
*543 _0524_
*544 _0525_
*545 _0526_
*546 _0527_
*547 _0528_
*548 _0529_
*549 _0530_
*550 _0531_
*551 _0532_
*552 _0533_
*553 _0534_
*554 _0535_
*555 _0536_
*556 _0537_
*557 _0538_
*558 _0539_
*559 _0540_
*560 _0541_
*561 _0542_
*562 _0543_
*563 _0544_
*564 _0545_
*565 _0546_
*566 _0547_
*567 _0548_
*568 _0549_
*569 _0550_
*570 _0551_
*571 _0552_
*572 _0553_
*573 _0554_
*574 _0555_
*575 _0556_
*576 _0557_
*577 _0558_
*578 _0559_
*579 _0560_
*580 _0561_
*581 _0562_
*582 _0563_
*583 _0564_
*584 _0565_
*585 _0566_
*586 _0567_
*587 _0568_
*588 _0569_
*589 _0570_
*590 _0571_
*591 _0572_
*592 _0573_
*593 _0574_
*594 _0575_
*595 _0576_
*596 _0577_
*597 _0578_
*598 _0579_
*599 _0580_
*600 _0581_
*601 _0582_
*602 _0583_
*603 _0584_
*604 _0585_
*605 _0586_
*606 _0587_
*607 _0588_
*608 _0589_
*609 _0590_
*610 _0591_
*611 _0592_
*612 _0593_
*613 _0594_
*614 _0595_
*615 _0596_
*616 _0597_
*617 _0598_
*618 _0599_
*619 _0600_
*620 _0601_
*621 _0602_
*622 _0603_
*623 _0604_
*624 _0605_
*625 _0606_
*626 _0607_
*627 _0608_
*628 _0609_
*629 _0610_
*630 _0611_
*631 _0612_
*632 _0613_
*633 _0614_
*634 _0615_
*635 _0616_
*636 _0617_
*637 _0618_
*638 _0619_
*639 _0620_
*640 _0621_
*641 _0622_
*642 _0623_
*643 _0624_
*644 _0625_
*645 _0626_
*646 _0627_
*647 _0628_
*648 _0629_
*649 _0630_
*650 _0631_
*651 _0632_
*652 _0633_
*653 _0634_
*654 _0635_
*655 _0636_
*656 _0637_
*657 _0638_
*658 _0639_
*659 _0640_
*660 _0641_
*661 _0642_
*662 _0643_
*663 _0644_
*664 _0645_
*665 _0646_
*666 _0647_
*667 _0648_
*668 _0649_
*669 _0650_
*670 _0651_
*671 _0652_
*672 _0653_
*673 _0654_
*674 _0655_
*675 _0656_
*676 _0657_
*677 _0658_
*678 _0659_
*679 _0660_
*680 _0661_
*681 _0662_
*682 _0663_
*683 _0664_
*684 _0665_
*685 _0666_
*686 _0667_
*687 _0668_
*688 _0669_
*689 _0670_
*690 _0671_
*691 _0672_
*692 _0673_
*693 _0674_
*694 _0675_
*695 _0676_
*696 _0677_
*697 _0678_
*698 _0679_
*699 _0680_
*700 _0681_
*701 _0682_
*702 _0683_
*703 _0684_
*704 _0685_
*705 _0686_
*706 _0687_
*707 _0688_
*708 _0689_
*709 _0690_
*710 _0691_
*711 _0692_
*712 _0693_
*713 _0694_
*714 _0695_
*715 _0696_
*716 _0697_
*717 _0698_
*718 _0699_
*719 _0700_
*720 _0701_
*721 _0702_
*722 _0703_
*723 _0704_
*724 _0705_
*725 _0706_
*726 _0707_
*727 _0708_
*728 _0709_
*729 _0710_
*730 _0711_
*731 _0712_
*732 _0713_
*733 _0714_
*734 _0715_
*735 _0716_
*736 _0717_
*737 _0718_
*738 _0719_
*739 _0720_
*740 _0721_
*741 _0722_
*742 _0723_
*743 _0724_
*744 _0725_
*745 _0726_
*746 _0727_
*747 _0728_
*748 _0729_
*749 _0730_
*750 _0731_
*751 _0732_
*752 _0733_
*753 _0734_
*754 _0735_
*755 _0736_
*756 _0737_
*757 _0738_
*758 _0739_
*759 _0740_
*760 _0741_
*761 _0742_
*762 _0743_
*763 _0744_
*764 _0745_
*765 _0746_
*766 _0747_
*767 _0748_
*768 _0749_
*769 _0750_
*770 _0751_
*771 _0752_
*772 _0753_
*773 _0754_
*774 _0755_
*775 _0756_
*776 _0757_
*777 _0758_
*778 _0759_
*779 _0760_
*780 _0761_
*781 _0762_
*782 _0763_
*783 _0764_
*784 _0765_
*785 _0766_
*786 _0767_
*787 clknet_0_io_in[0]
*788 clknet_4_0_0_io_in[0]
*789 clknet_4_10_0_io_in[0]
*790 clknet_4_11_0_io_in[0]
*791 clknet_4_12_0_io_in[0]
*792 clknet_4_13_0_io_in[0]
*793 clknet_4_14_0_io_in[0]
*794 clknet_4_15_0_io_in[0]
*795 clknet_4_1_0_io_in[0]
*796 clknet_4_2_0_io_in[0]
*797 clknet_4_3_0_io_in[0]
*798 clknet_4_4_0_io_in[0]
*799 clknet_4_5_0_io_in[0]
*800 clknet_4_6_0_io_in[0]
*801 clknet_4_7_0_io_in[0]
*802 clknet_4_8_0_io_in[0]
*803 clknet_4_9_0_io_in[0]
*804 net1
*805 net2
*806 net3
*807 net4
*808 net5
*809 net6
*810 net7
*811 r_a\[0\]
*812 r_a\[1\]
*813 r_a\[2\]
*814 r_a\[3\]
*815 r_c
*816 r_ins\[0\]
*817 r_ins\[1\]
*818 r_ins\[2\]
*819 r_ins\[3\]
*820 r_local_ram\[0\]\[0\]
*821 r_local_ram\[0\]\[1\]
*822 r_local_ram\[0\]\[2\]
*823 r_local_ram\[0\]\[3\]
*824 r_local_ram\[10\]\[0\]
*825 r_local_ram\[10\]\[1\]
*826 r_local_ram\[10\]\[2\]
*827 r_local_ram\[10\]\[3\]
*828 r_local_ram\[11\]\[0\]
*829 r_local_ram\[11\]\[1\]
*830 r_local_ram\[11\]\[2\]
*831 r_local_ram\[11\]\[3\]
*832 r_local_ram\[12\]\[0\]
*833 r_local_ram\[12\]\[1\]
*834 r_local_ram\[12\]\[2\]
*835 r_local_ram\[12\]\[3\]
*836 r_local_ram\[13\]\[0\]
*837 r_local_ram\[13\]\[1\]
*838 r_local_ram\[13\]\[2\]
*839 r_local_ram\[13\]\[3\]
*840 r_local_ram\[14\]\[0\]
*841 r_local_ram\[14\]\[1\]
*842 r_local_ram\[14\]\[2\]
*843 r_local_ram\[14\]\[3\]
*844 r_local_ram\[15\]\[0\]
*845 r_local_ram\[15\]\[1\]
*846 r_local_ram\[15\]\[2\]
*847 r_local_ram\[15\]\[3\]
*848 r_local_ram\[16\]\[0\]
*849 r_local_ram\[16\]\[1\]
*850 r_local_ram\[16\]\[2\]
*851 r_local_ram\[16\]\[3\]
*852 r_local_ram\[17\]\[0\]
*853 r_local_ram\[17\]\[1\]
*854 r_local_ram\[17\]\[2\]
*855 r_local_ram\[17\]\[3\]
*856 r_local_ram\[18\]\[0\]
*857 r_local_ram\[18\]\[1\]
*858 r_local_ram\[18\]\[2\]
*859 r_local_ram\[18\]\[3\]
*860 r_local_ram\[19\]\[0\]
*861 r_local_ram\[19\]\[1\]
*862 r_local_ram\[19\]\[2\]
*863 r_local_ram\[19\]\[3\]
*864 r_local_ram\[1\]\[0\]
*865 r_local_ram\[1\]\[1\]
*866 r_local_ram\[1\]\[2\]
*867 r_local_ram\[1\]\[3\]
*868 r_local_ram\[20\]\[0\]
*869 r_local_ram\[20\]\[1\]
*870 r_local_ram\[20\]\[2\]
*871 r_local_ram\[20\]\[3\]
*872 r_local_ram\[21\]\[0\]
*873 r_local_ram\[21\]\[1\]
*874 r_local_ram\[21\]\[2\]
*875 r_local_ram\[21\]\[3\]
*876 r_local_ram\[22\]\[0\]
*877 r_local_ram\[22\]\[1\]
*878 r_local_ram\[22\]\[2\]
*879 r_local_ram\[22\]\[3\]
*880 r_local_ram\[23\]\[0\]
*881 r_local_ram\[23\]\[1\]
*882 r_local_ram\[23\]\[2\]
*883 r_local_ram\[23\]\[3\]
*884 r_local_ram\[2\]\[0\]
*885 r_local_ram\[2\]\[1\]
*886 r_local_ram\[2\]\[2\]
*887 r_local_ram\[2\]\[3\]
*888 r_local_ram\[3\]\[0\]
*889 r_local_ram\[3\]\[1\]
*890 r_local_ram\[3\]\[2\]
*891 r_local_ram\[3\]\[3\]
*892 r_local_ram\[4\]\[0\]
*893 r_local_ram\[4\]\[1\]
*894 r_local_ram\[4\]\[2\]
*895 r_local_ram\[4\]\[3\]
*896 r_local_ram\[5\]\[0\]
*897 r_local_ram\[5\]\[1\]
*898 r_local_ram\[5\]\[2\]
*899 r_local_ram\[5\]\[3\]
*900 r_local_ram\[6\]\[0\]
*901 r_local_ram\[6\]\[1\]
*902 r_local_ram\[6\]\[2\]
*903 r_local_ram\[6\]\[3\]
*904 r_local_ram\[7\]\[0\]
*905 r_local_ram\[7\]\[1\]
*906 r_local_ram\[7\]\[2\]
*907 r_local_ram\[7\]\[3\]
*908 r_local_ram\[8\]\[0\]
*909 r_local_ram\[8\]\[1\]
*910 r_local_ram\[8\]\[2\]
*911 r_local_ram\[8\]\[3\]
*912 r_local_ram\[9\]\[0\]
*913 r_local_ram\[9\]\[1\]
*914 r_local_ram\[9\]\[2\]
*915 r_local_ram\[9\]\[3\]
*916 r_pc\[0\]
*917 r_pc\[1\]
*918 r_pc\[2\]
*919 r_pc\[3\]
*920 r_pc\[4\]
*921 r_pc\[5\]
*922 r_pc\[6\]
*923 r_phase\[0\]
*924 r_phase\[1\]
*925 r_phase\[2\]
*926 r_phase\[3\]
*927 r_phase\[4\]
*928 r_phase\[5\]
*929 r_phase\[6\]
*930 r_phase\[7\]
*931 r_s0\[0\]
*932 r_s0\[1\]
*933 r_s0\[2\]
*934 r_s0\[3\]
*935 r_s0\[4\]
*936 r_s0\[5\]
*937 r_s0\[6\]
*938 r_s1\[0\]
*939 r_s1\[1\]
*940 r_s1\[2\]
*941 r_s1\[3\]
*942 r_s1\[4\]
*943 r_s1\[5\]
*944 r_s1\[6\]
*945 r_s2\[0\]
*946 r_s2\[1\]
*947 r_s2\[2\]
*948 r_s2\[3\]
*949 r_s2\[4\]
*950 r_s2\[5\]
*951 r_s2\[6\]
*952 r_s3\[0\]
*953 r_s3\[1\]
*954 r_s3\[2\]
*955 r_s3\[3\]
*956 r_s3\[4\]
*957 r_s3\[5\]
*958 r_s3\[6\]
*959 r_tmp2\[0\]
*960 r_tmp2\[1\]
*961 r_tmp2\[2\]
*962 r_tmp2\[3\]
*963 r_tmp\[0\]
*964 r_tmp\[1\]
*965 r_tmp\[2\]
*966 r_tmp\[3\]
*967 r_x\[0\]
*968 r_x\[1\]
*969 r_x\[2\]
*970 r_x\[3\]
*971 r_x\[4\]
*972 r_x\[5\]
*973 r_x\[6\]
*974 r_x\[7\]
*975 r_y\[0\]
*976 r_y\[1\]
*977 r_y\[2\]
*978 r_y\[3\]
*979 r_y\[4\]
*980 r_y\[5\]
*981 r_y\[6\]
*982 r_y\[7\]
*983 strobe_out
*984 ANTENNA_1
*985 ANTENNA_2
*986 ANTENNA_3
*987 ANTENNA_4
*988 ANTENNA_5
*989 ANTENNA_6
*990 FILLER_0_102
*991 FILLER_0_106
*992 FILLER_0_110
*993 FILLER_0_113
*994 FILLER_0_119
*995 FILLER_0_126
*996 FILLER_0_133
*997 FILLER_0_139
*998 FILLER_0_141
*999 FILLER_0_146
*1000 FILLER_0_153
*1001 FILLER_0_16
*1002 FILLER_0_160
*1003 FILLER_0_166
*1004 FILLER_0_169
*1005 FILLER_0_174
*1006 FILLER_0_181
*1007 FILLER_0_185
*1008 FILLER_0_193
*1009 FILLER_0_197
*1010 FILLER_0_209
*1011 FILLER_0_221
*1012 FILLER_0_225
*1013 FILLER_0_237
*1014 FILLER_0_249
*1015 FILLER_0_253
*1016 FILLER_0_26
*1017 FILLER_0_265
*1018 FILLER_0_277
*1019 FILLER_0_281
*1020 FILLER_0_29
*1021 FILLER_0_293
*1022 FILLER_0_3
*1023 FILLER_0_38
*1024 FILLER_0_46
*1025 FILLER_0_50
*1026 FILLER_0_54
*1027 FILLER_0_57
*1028 FILLER_0_69
*1029 FILLER_0_77
*1030 FILLER_0_8
*1031 FILLER_0_83
*1032 FILLER_0_85
*1033 FILLER_10_103
*1034 FILLER_10_112
*1035 FILLER_10_125
*1036 FILLER_10_138
*1037 FILLER_10_141
*1038 FILLER_10_146
*1039 FILLER_10_166
*1040 FILLER_10_173
*1041 FILLER_10_193
*1042 FILLER_10_197
*1043 FILLER_10_215
*1044 FILLER_10_228
*1045 FILLER_10_232
*1046 FILLER_10_242
*1047 FILLER_10_249
*1048 FILLER_10_253
*1049 FILLER_10_26
*1050 FILLER_10_264
*1051 FILLER_10_276
*1052 FILLER_10_288
*1053 FILLER_10_29
*1054 FILLER_10_296
*1055 FILLER_10_3
*1056 FILLER_10_49
*1057 FILLER_10_69
*1058 FILLER_10_75
*1059 FILLER_10_82
*1060 FILLER_10_85
*1061 FILLER_10_9
*1062 FILLER_11_110
*1063 FILLER_11_113
*1064 FILLER_11_122
*1065 FILLER_11_129
*1066 FILLER_11_14
*1067 FILLER_11_149
*1068 FILLER_11_153
*1069 FILLER_11_157
*1070 FILLER_11_161
*1071 FILLER_11_166
*1072 FILLER_11_169
*1073 FILLER_11_173
*1074 FILLER_11_183
*1075 FILLER_11_196
*1076 FILLER_11_209
*1077 FILLER_11_222
*1078 FILLER_11_225
*1079 FILLER_11_230
*1080 FILLER_11_255
*1081 FILLER_11_275
*1082 FILLER_11_279
*1083 FILLER_11_281
*1084 FILLER_11_293
*1085 FILLER_11_3
*1086 FILLER_11_34
*1087 FILLER_11_47
*1088 FILLER_11_54
*1089 FILLER_11_57
*1090 FILLER_11_62
*1091 FILLER_11_75
*1092 FILLER_11_81
*1093 FILLER_11_88
*1094 FILLER_11_99
*1095 FILLER_12_110
*1096 FILLER_12_114
*1097 FILLER_12_124
*1098 FILLER_12_137
*1099 FILLER_12_141
*1100 FILLER_12_147
*1101 FILLER_12_155
*1102 FILLER_12_160
*1103 FILLER_12_170
*1104 FILLER_12_174
*1105 FILLER_12_186
*1106 FILLER_12_190
*1107 FILLER_12_194
*1108 FILLER_12_197
*1109 FILLER_12_204
*1110 FILLER_12_22
*1111 FILLER_12_224
*1112 FILLER_12_244
*1113 FILLER_12_253
*1114 FILLER_12_258
*1115 FILLER_12_265
*1116 FILLER_12_277
*1117 FILLER_12_289
*1118 FILLER_12_29
*1119 FILLER_12_297
*1120 FILLER_12_3
*1121 FILLER_12_37
*1122 FILLER_12_44
*1123 FILLER_12_52
*1124 FILLER_12_61
*1125 FILLER_12_68
*1126 FILLER_12_79
*1127 FILLER_12_83
*1128 FILLER_12_85
*1129 FILLER_12_99
*1130 FILLER_13_109
*1131 FILLER_13_113
*1132 FILLER_13_119
*1133 FILLER_13_132
*1134 FILLER_13_138
*1135 FILLER_13_155
*1136 FILLER_13_162
*1137 FILLER_13_169
*1138 FILLER_13_17
*1139 FILLER_13_187
*1140 FILLER_13_207
*1141 FILLER_13_222
*1142 FILLER_13_225
*1143 FILLER_13_236
*1144 FILLER_13_240
*1145 FILLER_13_250
*1146 FILLER_13_257
*1147 FILLER_13_269
*1148 FILLER_13_277
*1149 FILLER_13_28
*1150 FILLER_13_281
*1151 FILLER_13_293
*1152 FILLER_13_3
*1153 FILLER_13_36
*1154 FILLER_13_53
*1155 FILLER_13_57
*1156 FILLER_13_7
*1157 FILLER_13_78
*1158 FILLER_13_90
*1159 FILLER_14_104
*1160 FILLER_14_119
*1161 FILLER_14_127
*1162 FILLER_14_138
*1163 FILLER_14_141
*1164 FILLER_14_149
*1165 FILLER_14_153
*1166 FILLER_14_170
*1167 FILLER_14_183
*1168 FILLER_14_194
*1169 FILLER_14_197
*1170 FILLER_14_208
*1171 FILLER_14_212
*1172 FILLER_14_229
*1173 FILLER_14_23
*1174 FILLER_14_242
*1175 FILLER_14_249
*1176 FILLER_14_253
*1177 FILLER_14_27
*1178 FILLER_14_271
*1179 FILLER_14_283
*1180 FILLER_14_29
*1181 FILLER_14_295
*1182 FILLER_14_3
*1183 FILLER_14_40
*1184 FILLER_14_52
*1185 FILLER_14_61
*1186 FILLER_14_78
*1187 FILLER_14_85
*1188 FILLER_15_100
*1189 FILLER_15_109
*1190 FILLER_15_113
*1191 FILLER_15_119
*1192 FILLER_15_125
*1193 FILLER_15_134
*1194 FILLER_15_149
*1195 FILLER_15_156
*1196 FILLER_15_166
*1197 FILLER_15_169
*1198 FILLER_15_175
*1199 FILLER_15_179
*1200 FILLER_15_201
*1201 FILLER_15_21
*1202 FILLER_15_211
*1203 FILLER_15_222
*1204 FILLER_15_225
*1205 FILLER_15_243
*1206 FILLER_15_251
*1207 FILLER_15_262
*1208 FILLER_15_27
*1209 FILLER_15_274
*1210 FILLER_15_281
*1211 FILLER_15_293
*1212 FILLER_15_3
*1213 FILLER_15_37
*1214 FILLER_15_52
*1215 FILLER_15_57
*1216 FILLER_15_75
*1217 FILLER_15_8
*1218 FILLER_15_90
*1219 FILLER_16_108
*1220 FILLER_16_119
*1221 FILLER_16_129
*1222 FILLER_16_138
*1223 FILLER_16_141
*1224 FILLER_16_150
*1225 FILLER_16_17
*1226 FILLER_16_176
*1227 FILLER_16_189
*1228 FILLER_16_195
*1229 FILLER_16_197
*1230 FILLER_16_21
*1231 FILLER_16_215
*1232 FILLER_16_222
*1233 FILLER_16_228
*1234 FILLER_16_250
*1235 FILLER_16_253
*1236 FILLER_16_26
*1237 FILLER_16_271
*1238 FILLER_16_283
*1239 FILLER_16_29
*1240 FILLER_16_295
*1241 FILLER_16_3
*1242 FILLER_16_40
*1243 FILLER_16_44
*1244 FILLER_16_54
*1245 FILLER_16_62
*1246 FILLER_16_68
*1247 FILLER_16_7
*1248 FILLER_16_81
*1249 FILLER_16_85
*1250 FILLER_16_96
*1251 FILLER_17_102
*1252 FILLER_17_110
*1253 FILLER_17_113
*1254 FILLER_17_121
*1255 FILLER_17_129
*1256 FILLER_17_133
*1257 FILLER_17_147
*1258 FILLER_17_158
*1259 FILLER_17_165
*1260 FILLER_17_169
*1261 FILLER_17_180
*1262 FILLER_17_188
*1263 FILLER_17_198
*1264 FILLER_17_21
*1265 FILLER_17_213
*1266 FILLER_17_222
*1267 FILLER_17_225
*1268 FILLER_17_236
*1269 FILLER_17_249
*1270 FILLER_17_25
*1271 FILLER_17_259
*1272 FILLER_17_266
*1273 FILLER_17_278
*1274 FILLER_17_281
*1275 FILLER_17_293
*1276 FILLER_17_3
*1277 FILLER_17_30
*1278 FILLER_17_34
*1279 FILLER_17_40
*1280 FILLER_17_50
*1281 FILLER_17_57
*1282 FILLER_17_61
*1283 FILLER_17_67
*1284 FILLER_17_79
*1285 FILLER_17_87
*1286 FILLER_18_103
*1287 FILLER_18_118
*1288 FILLER_18_122
*1289 FILLER_18_128
*1290 FILLER_18_137
*1291 FILLER_18_141
*1292 FILLER_18_152
*1293 FILLER_18_16
*1294 FILLER_18_160
*1295 FILLER_18_167
*1296 FILLER_18_187
*1297 FILLER_18_194
*1298 FILLER_18_197
*1299 FILLER_18_217
*1300 FILLER_18_237
*1301 FILLER_18_244
*1302 FILLER_18_253
*1303 FILLER_18_258
*1304 FILLER_18_26
*1305 FILLER_18_270
*1306 FILLER_18_282
*1307 FILLER_18_29
*1308 FILLER_18_294
*1309 FILLER_18_298
*1310 FILLER_18_3
*1311 FILLER_18_37
*1312 FILLER_18_45
*1313 FILLER_18_51
*1314 FILLER_18_61
*1315 FILLER_18_80
*1316 FILLER_18_85
*1317 FILLER_18_9
*1318 FILLER_18_94
*1319 FILLER_19_110
*1320 FILLER_19_113
*1321 FILLER_19_124
*1322 FILLER_19_132
*1323 FILLER_19_139
*1324 FILLER_19_15
*1325 FILLER_19_150
*1326 FILLER_19_157
*1327 FILLER_19_164
*1328 FILLER_19_169
*1329 FILLER_19_180
*1330 FILLER_19_184
*1331 FILLER_19_206
*1332 FILLER_19_210
*1333 FILLER_19_222
*1334 FILLER_19_225
*1335 FILLER_19_236
*1336 FILLER_19_251
*1337 FILLER_19_26
*1338 FILLER_19_273
*1339 FILLER_19_279
*1340 FILLER_19_281
*1341 FILLER_19_293
*1342 FILLER_19_3
*1343 FILLER_19_30
*1344 FILLER_19_35
*1345 FILLER_19_43
*1346 FILLER_19_51
*1347 FILLER_19_55
*1348 FILLER_19_57
*1349 FILLER_19_64
*1350 FILLER_19_77
*1351 FILLER_19_8
*1352 FILLER_19_87
*1353 FILLER_19_99
*1354 FILLER_1_106
*1355 FILLER_1_113
*1356 FILLER_1_122
*1357 FILLER_1_142
*1358 FILLER_1_149
*1359 FILLER_1_154
*1360 FILLER_1_158
*1361 FILLER_1_163
*1362 FILLER_1_167
*1363 FILLER_1_169
*1364 FILLER_1_174
*1365 FILLER_1_186
*1366 FILLER_1_198
*1367 FILLER_1_210
*1368 FILLER_1_222
*1369 FILLER_1_225
*1370 FILLER_1_237
*1371 FILLER_1_249
*1372 FILLER_1_25
*1373 FILLER_1_261
*1374 FILLER_1_273
*1375 FILLER_1_279
*1376 FILLER_1_281
*1377 FILLER_1_29
*1378 FILLER_1_293
*1379 FILLER_1_3
*1380 FILLER_1_39
*1381 FILLER_1_48
*1382 FILLER_1_57
*1383 FILLER_1_76
*1384 FILLER_1_80
*1385 FILLER_1_86
*1386 FILLER_20_104
*1387 FILLER_20_113
*1388 FILLER_20_122
*1389 FILLER_20_129
*1390 FILLER_20_138
*1391 FILLER_20_141
*1392 FILLER_20_152
*1393 FILLER_20_156
*1394 FILLER_20_17
*1395 FILLER_20_173
*1396 FILLER_20_177
*1397 FILLER_20_187
*1398 FILLER_20_195
*1399 FILLER_20_197
*1400 FILLER_20_21
*1401 FILLER_20_210
*1402 FILLER_20_223
*1403 FILLER_20_250
*1404 FILLER_20_253
*1405 FILLER_20_26
*1406 FILLER_20_271
*1407 FILLER_20_283
*1408 FILLER_20_29
*1409 FILLER_20_295
*1410 FILLER_20_3
*1411 FILLER_20_48
*1412 FILLER_20_58
*1413 FILLER_20_62
*1414 FILLER_20_69
*1415 FILLER_20_7
*1416 FILLER_20_80
*1417 FILLER_20_85
*1418 FILLER_20_94
*1419 FILLER_21_103
*1420 FILLER_21_110
*1421 FILLER_21_113
*1422 FILLER_21_120
*1423 FILLER_21_129
*1424 FILLER_21_139
*1425 FILLER_21_149
*1426 FILLER_21_159
*1427 FILLER_21_166
*1428 FILLER_21_169
*1429 FILLER_21_178
*1430 FILLER_21_187
*1431 FILLER_21_194
*1432 FILLER_21_198
*1433 FILLER_21_208
*1434 FILLER_21_21
*1435 FILLER_21_217
*1436 FILLER_21_223
*1437 FILLER_21_225
*1438 FILLER_21_243
*1439 FILLER_21_251
*1440 FILLER_21_262
*1441 FILLER_21_269
*1442 FILLER_21_277
*1443 FILLER_21_281
*1444 FILLER_21_293
*1445 FILLER_21_3
*1446 FILLER_21_31
*1447 FILLER_21_39
*1448 FILLER_21_45
*1449 FILLER_21_54
*1450 FILLER_21_57
*1451 FILLER_21_66
*1452 FILLER_21_76
*1453 FILLER_21_84
*1454 FILLER_21_95
*1455 FILLER_22_103
*1456 FILLER_22_113
*1457 FILLER_22_125
*1458 FILLER_22_131
*1459 FILLER_22_137
*1460 FILLER_22_141
*1461 FILLER_22_147
*1462 FILLER_22_157
*1463 FILLER_22_174
*1464 FILLER_22_183
*1465 FILLER_22_192
*1466 FILLER_22_197
*1467 FILLER_22_208
*1468 FILLER_22_21
*1469 FILLER_22_217
*1470 FILLER_22_224
*1471 FILLER_22_228
*1472 FILLER_22_238
*1473 FILLER_22_247
*1474 FILLER_22_251
*1475 FILLER_22_253
*1476 FILLER_22_264
*1477 FILLER_22_27
*1478 FILLER_22_271
*1479 FILLER_22_283
*1480 FILLER_22_29
*1481 FILLER_22_295
*1482 FILLER_22_3
*1483 FILLER_22_38
*1484 FILLER_22_48
*1485 FILLER_22_52
*1486 FILLER_22_56
*1487 FILLER_22_69
*1488 FILLER_22_80
*1489 FILLER_22_85
*1490 FILLER_22_95
*1491 FILLER_23_108
*1492 FILLER_23_113
*1493 FILLER_23_12
*1494 FILLER_23_122
*1495 FILLER_23_134
*1496 FILLER_23_141
*1497 FILLER_23_145
*1498 FILLER_23_159
*1499 FILLER_23_167
*1500 FILLER_23_169
*1501 FILLER_23_180
*1502 FILLER_23_202
*1503 FILLER_23_219
*1504 FILLER_23_223
*1505 FILLER_23_225
*1506 FILLER_23_230
*1507 FILLER_23_243
*1508 FILLER_23_267
*1509 FILLER_23_279
*1510 FILLER_23_281
*1511 FILLER_23_293
*1512 FILLER_23_3
*1513 FILLER_23_32
*1514 FILLER_23_36
*1515 FILLER_23_47
*1516 FILLER_23_54
*1517 FILLER_23_57
*1518 FILLER_23_64
*1519 FILLER_23_72
*1520 FILLER_23_82
*1521 FILLER_23_98
*1522 FILLER_24_103
*1523 FILLER_24_112
*1524 FILLER_24_120
*1525 FILLER_24_124
*1526 FILLER_24_129
*1527 FILLER_24_138
*1528 FILLER_24_141
*1529 FILLER_24_153
*1530 FILLER_24_16
*1531 FILLER_24_179
*1532 FILLER_24_191
*1533 FILLER_24_195
*1534 FILLER_24_197
*1535 FILLER_24_221
*1536 FILLER_24_227
*1537 FILLER_24_24
*1538 FILLER_24_244
*1539 FILLER_24_253
*1540 FILLER_24_259
*1541 FILLER_24_266
*1542 FILLER_24_278
*1543 FILLER_24_29
*1544 FILLER_24_290
*1545 FILLER_24_298
*1546 FILLER_24_3
*1547 FILLER_24_33
*1548 FILLER_24_41
*1549 FILLER_24_49
*1550 FILLER_24_55
*1551 FILLER_24_64
*1552 FILLER_24_73
*1553 FILLER_24_82
*1554 FILLER_24_85
*1555 FILLER_24_9
*1556 FILLER_24_92
*1557 FILLER_24_98
*1558 FILLER_25_102
*1559 FILLER_25_110
*1560 FILLER_25_113
*1561 FILLER_25_12
*1562 FILLER_25_121
*1563 FILLER_25_133
*1564 FILLER_25_145
*1565 FILLER_25_154
*1566 FILLER_25_166
*1567 FILLER_25_169
*1568 FILLER_25_179
*1569 FILLER_25_185
*1570 FILLER_25_202
*1571 FILLER_25_209
*1572 FILLER_25_21
*1573 FILLER_25_220
*1574 FILLER_25_225
*1575 FILLER_25_236
*1576 FILLER_25_240
*1577 FILLER_25_262
*1578 FILLER_25_274
*1579 FILLER_25_28
*1580 FILLER_25_281
*1581 FILLER_25_293
*1582 FILLER_25_3
*1583 FILLER_25_37
*1584 FILLER_25_43
*1585 FILLER_25_47
*1586 FILLER_25_54
*1587 FILLER_25_57
*1588 FILLER_25_70
*1589 FILLER_25_79
*1590 FILLER_25_87
*1591 FILLER_25_95
*1592 FILLER_26_107
*1593 FILLER_26_117
*1594 FILLER_26_129
*1595 FILLER_26_133
*1596 FILLER_26_138
*1597 FILLER_26_141
*1598 FILLER_26_154
*1599 FILLER_26_161
*1600 FILLER_26_180
*1601 FILLER_26_190
*1602 FILLER_26_197
*1603 FILLER_26_208
*1604 FILLER_26_21
*1605 FILLER_26_214
*1606 FILLER_26_231
*1607 FILLER_26_239
*1608 FILLER_26_250
*1609 FILLER_26_253
*1610 FILLER_26_27
*1611 FILLER_26_273
*1612 FILLER_26_285
*1613 FILLER_26_29
*1614 FILLER_26_297
*1615 FILLER_26_3
*1616 FILLER_26_35
*1617 FILLER_26_49
*1618 FILLER_26_56
*1619 FILLER_26_65
*1620 FILLER_26_73
*1621 FILLER_26_82
*1622 FILLER_26_85
*1623 FILLER_26_95
*1624 FILLER_27_110
*1625 FILLER_27_113
*1626 FILLER_27_122
*1627 FILLER_27_131
*1628 FILLER_27_139
*1629 FILLER_27_15
*1630 FILLER_27_156
*1631 FILLER_27_165
*1632 FILLER_27_169
*1633 FILLER_27_175
*1634 FILLER_27_188
*1635 FILLER_27_197
*1636 FILLER_27_222
*1637 FILLER_27_225
*1638 FILLER_27_24
*1639 FILLER_27_247
*1640 FILLER_27_260
*1641 FILLER_27_267
*1642 FILLER_27_279
*1643 FILLER_27_281
*1644 FILLER_27_293
*1645 FILLER_27_3
*1646 FILLER_27_34
*1647 FILLER_27_54
*1648 FILLER_27_57
*1649 FILLER_27_63
*1650 FILLER_27_69
*1651 FILLER_27_77
*1652 FILLER_27_87
*1653 FILLER_27_9
*1654 FILLER_27_99
*1655 FILLER_28_102
*1656 FILLER_28_112
*1657 FILLER_28_125
*1658 FILLER_28_133
*1659 FILLER_28_139
*1660 FILLER_28_141
*1661 FILLER_28_163
*1662 FILLER_28_183
*1663 FILLER_28_195
*1664 FILLER_28_197
*1665 FILLER_28_208
*1666 FILLER_28_21
*1667 FILLER_28_212
*1668 FILLER_28_222
*1669 FILLER_28_229
*1670 FILLER_28_233
*1671 FILLER_28_243
*1672 FILLER_28_250
*1673 FILLER_28_253
*1674 FILLER_28_27
*1675 FILLER_28_273
*1676 FILLER_28_285
*1677 FILLER_28_29
*1678 FILLER_28_297
*1679 FILLER_28_3
*1680 FILLER_28_40
*1681 FILLER_28_48
*1682 FILLER_28_52
*1683 FILLER_28_63
*1684 FILLER_28_79
*1685 FILLER_28_83
*1686 FILLER_28_85
*1687 FILLER_29_10
*1688 FILLER_29_105
*1689 FILLER_29_111
*1690 FILLER_29_113
*1691 FILLER_29_118
*1692 FILLER_29_138
*1693 FILLER_29_163
*1694 FILLER_29_167
*1695 FILLER_29_169
*1696 FILLER_29_180
*1697 FILLER_29_188
*1698 FILLER_29_19
*1699 FILLER_29_205
*1700 FILLER_29_214
*1701 FILLER_29_221
*1702 FILLER_29_225
*1703 FILLER_29_232
*1704 FILLER_29_240
*1705 FILLER_29_263
*1706 FILLER_29_270
*1707 FILLER_29_278
*1708 FILLER_29_281
*1709 FILLER_29_293
*1710 FILLER_29_3
*1711 FILLER_29_40
*1712 FILLER_29_53
*1713 FILLER_29_57
*1714 FILLER_29_61
*1715 FILLER_29_65
*1716 FILLER_29_85
*1717 FILLER_2_107
*1718 FILLER_2_117
*1719 FILLER_2_125
*1720 FILLER_2_134
*1721 FILLER_2_141
*1722 FILLER_2_151
*1723 FILLER_2_158
*1724 FILLER_2_165
*1725 FILLER_2_174
*1726 FILLER_2_186
*1727 FILLER_2_194
*1728 FILLER_2_197
*1729 FILLER_2_209
*1730 FILLER_2_21
*1731 FILLER_2_221
*1732 FILLER_2_233
*1733 FILLER_2_245
*1734 FILLER_2_251
*1735 FILLER_2_253
*1736 FILLER_2_265
*1737 FILLER_2_27
*1738 FILLER_2_277
*1739 FILLER_2_289
*1740 FILLER_2_29
*1741 FILLER_2_297
*1742 FILLER_2_3
*1743 FILLER_2_46
*1744 FILLER_2_57
*1745 FILLER_2_64
*1746 FILLER_2_72
*1747 FILLER_2_82
*1748 FILLER_2_85
*1749 FILLER_2_94
*1750 FILLER_30_102
*1751 FILLER_30_11
*1752 FILLER_30_120
*1753 FILLER_30_128
*1754 FILLER_30_138
*1755 FILLER_30_141
*1756 FILLER_30_149
*1757 FILLER_30_160
*1758 FILLER_30_164
*1759 FILLER_30_170
*1760 FILLER_30_176
*1761 FILLER_30_186
*1762 FILLER_30_190
*1763 FILLER_30_194
*1764 FILLER_30_197
*1765 FILLER_30_20
*1766 FILLER_30_206
*1767 FILLER_30_216
*1768 FILLER_30_224
*1769 FILLER_30_242
*1770 FILLER_30_249
*1771 FILLER_30_253
*1772 FILLER_30_264
*1773 FILLER_30_273
*1774 FILLER_30_285
*1775 FILLER_30_29
*1776 FILLER_30_297
*1777 FILLER_30_3
*1778 FILLER_30_46
*1779 FILLER_30_50
*1780 FILLER_30_60
*1781 FILLER_30_73
*1782 FILLER_30_81
*1783 FILLER_30_85
*1784 FILLER_30_94
*1785 FILLER_31_104
*1786 FILLER_31_113
*1787 FILLER_31_123
*1788 FILLER_31_131
*1789 FILLER_31_141
*1790 FILLER_31_149
*1791 FILLER_31_15
*1792 FILLER_31_156
*1793 FILLER_31_160
*1794 FILLER_31_166
*1795 FILLER_31_169
*1796 FILLER_31_176
*1797 FILLER_31_184
*1798 FILLER_31_194
*1799 FILLER_31_201
*1800 FILLER_31_21
*1801 FILLER_31_212
*1802 FILLER_31_222
*1803 FILLER_31_225
*1804 FILLER_31_229
*1805 FILLER_31_239
*1806 FILLER_31_248