*SPEF "ieee 1481-1999"
*DESIGN "moonbase_cpu_8bit"
*DATE "11:11:11 Fri 11 11, 1111"
*VENDOR "OpenRCX"
*PROGRAM "Parallel Extraction"
*VERSION "1.0"
*DESIGN_FLOW "NAME_SCOPE LOCAL" "PIN_CAP NONE"
*DIVIDER /
*DELIMITER :
*BUS_DELIMITER []
*T_UNIT 1 NS
*C_UNIT 1 PF
*R_UNIT 1 OHM
*L_UNIT 1 HENRY

*NAME_MAP
*1 io_in[0]
*2 io_in[1]
*3 io_in[2]
*4 io_in[3]
*5 io_in[4]
*6 io_in[5]
*7 io_in[6]
*8 io_in[7]
*9 io_out[0]
*10 io_out[1]
*11 io_out[2]
*12 io_out[3]
*13 io_out[4]
*14 io_out[5]
*15 io_out[6]
*16 io_out[7]
*19 _0000_
*20 _0001_
*21 _0002_
*22 _0003_
*23 _0004_
*24 _0005_
*25 _0006_
*26 _0007_
*27 _0008_
*28 _0009_
*29 _0010_
*30 _0011_
*31 _0012_
*32 _0013_
*33 _0014_
*34 _0015_
*35 _0016_
*36 _0017_
*37 _0018_
*38 _0019_
*39 _0020_
*40 _0021_
*41 _0022_
*42 _0023_
*43 _0024_
*44 _0025_
*45 _0026_
*46 _0027_
*47 _0028_
*48 _0029_
*49 _0030_
*50 _0031_
*51 _0032_
*52 _0033_
*53 _0034_
*54 _0035_
*55 _0036_
*56 _0037_
*57 _0038_
*58 _0039_
*59 _0040_
*60 _0041_
*61 _0042_
*62 _0043_
*63 _0044_
*64 _0045_
*65 _0046_
*66 _0047_
*67 _0048_
*68 _0049_
*69 _0050_
*70 _0051_
*71 _0052_
*72 _0053_
*73 _0054_
*74 _0055_
*75 _0056_
*76 _0057_
*77 _0058_
*78 _0059_
*79 _0060_
*80 _0061_
*81 _0062_
*82 _0063_
*83 _0064_
*84 _0065_
*85 _0066_
*86 _0067_
*87 _0068_
*88 _0069_
*89 _0070_
*90 _0071_
*91 _0072_
*92 _0073_
*93 _0074_
*94 _0075_
*95 _0076_
*96 _0077_
*97 _0078_
*98 _0079_
*99 _0080_
*100 _0081_
*101 _0082_
*102 _0083_
*103 _0084_
*104 _0085_
*105 _0086_
*106 _0087_
*107 _0088_
*108 _0089_
*109 _0090_
*110 _0091_
*111 _0092_
*112 _0093_
*113 _0094_
*114 _0095_
*115 _0096_
*116 _0097_
*117 _0098_
*118 _0099_
*119 _0100_
*120 _0101_
*121 _0102_
*122 _0103_
*123 _0104_
*124 _0105_
*125 _0106_
*126 _0107_
*127 _0108_
*128 _0109_
*129 _0110_
*130 _0111_
*131 _0112_
*132 _0113_
*133 _0114_
*134 _0115_
*135 _0116_
*136 _0117_
*137 _0118_
*138 _0119_
*139 _0120_
*140 _0121_
*141 _0122_
*142 _0123_
*143 _0124_
*144 _0125_
*145 _0126_
*146 _0127_
*147 _0128_
*148 _0129_
*149 _0130_
*150 _0131_
*151 _0132_
*152 _0133_
*153 _0134_
*154 _0135_
*155 _0136_
*156 _0137_
*157 _0138_
*158 _0139_
*159 _0140_
*160 _0141_
*161 _0142_
*162 _0143_
*163 _0144_
*164 _0145_
*165 _0146_
*166 _0147_
*167 _0148_
*168 _0149_
*169 _0150_
*170 _0151_
*171 _0152_
*172 _0153_
*173 _0154_
*174 _0155_
*175 _0156_
*176 _0157_
*177 _0158_
*178 _0159_
*179 _0160_
*180 _0161_
*181 _0162_
*182 _0163_
*183 _0164_
*184 _0165_
*185 _0166_
*186 _0167_
*187 _0168_
*188 _0169_
*189 _0170_
*190 _0171_
*191 _0172_
*192 _0173_
*193 _0174_
*194 _0175_
*195 _0176_
*196 _0177_
*197 _0178_
*198 _0179_
*199 _0180_
*200 _0181_
*201 _0182_
*202 _0183_
*203 _0184_
*204 _0185_
*205 _0186_
*206 _0187_
*207 _0188_
*208 _0189_
*209 _0190_
*210 _0191_
*211 _0192_
*212 _0193_
*213 _0194_
*214 _0195_
*215 _0196_
*216 _0197_
*217 _0198_
*218 _0199_
*219 _0200_
*220 _0201_
*221 _0202_
*222 _0203_
*223 _0204_
*224 _0205_
*225 _0206_
*226 _0207_
*227 _0208_
*228 _0209_
*229 _0210_
*230 _0211_
*231 _0212_
*232 _0213_
*233 _0214_
*234 _0215_
*235 _0216_
*236 _0217_
*237 _0218_
*238 _0219_
*239 _0220_
*240 _0221_
*241 _0222_
*242 _0223_
*243 _0224_
*244 _0225_
*245 _0226_
*246 _0227_
*247 _0228_
*248 _0229_
*249 _0230_
*250 _0231_
*251 _0232_
*252 _0233_
*253 _0234_
*254 _0235_
*255 _0236_
*256 _0237_
*257 _0238_
*258 _0239_
*259 _0240_
*260 _0241_
*261 _0242_
*262 _0243_
*263 _0244_
*264 _0245_
*265 _0246_
*266 _0247_
*267 _0248_
*268 _0249_
*269 _0250_
*270 _0251_
*271 _0252_
*272 _0253_
*273 _0254_
*274 _0255_
*275 _0256_
*276 _0257_
*277 _0258_
*278 _0259_
*279 _0260_
*280 _0261_
*281 _0262_
*282 _0263_
*283 _0264_
*284 _0265_
*285 _0266_
*286 _0267_
*287 _0268_
*288 _0269_
*289 _0270_
*290 _0271_
*291 _0272_
*292 _0273_
*293 _0274_
*294 _0275_
*295 _0276_
*296 _0277_
*297 _0278_
*298 _0279_
*299 _0280_
*300 _0281_
*301 _0282_
*302 _0283_
*303 _0284_
*304 _0285_
*305 _0286_
*306 _0287_
*307 _0288_
*308 _0289_
*309 _0290_
*310 _0291_
*311 _0292_
*312 _0293_
*313 _0294_
*314 _0295_
*315 _0296_
*316 _0297_
*317 _0298_
*318 _0299_
*319 _0300_
*320 _0301_
*321 _0302_
*322 _0303_
*323 _0304_
*324 _0305_
*325 _0306_
*326 _0307_
*327 _0308_
*328 _0309_
*329 _0310_
*330 _0311_
*331 _0312_
*332 _0313_
*333 _0314_
*334 _0315_
*335 _0316_
*336 _0317_
*337 _0318_
*338 _0319_
*339 _0320_
*340 _0321_
*341 _0322_
*342 _0323_
*343 _0324_
*344 _0325_
*345 _0326_
*346 _0327_
*347 _0328_
*348 _0329_
*349 _0330_
*350 _0331_
*351 _0332_
*352 _0333_
*353 _0334_
*354 _0335_
*355 _0336_
*356 _0337_
*357 _0338_
*358 _0339_
*359 _0340_
*360 _0341_
*361 _0342_
*362 _0343_
*363 _0344_
*364 _0345_
*365 _0346_
*366 _0347_
*367 _0348_
*368 _0349_
*369 _0350_
*370 _0351_
*371 _0352_
*372 _0353_
*373 _0354_
*374 _0355_
*375 _0356_
*376 _0357_
*377 _0358_
*378 _0359_
*379 _0360_
*380 _0361_
*381 _0362_
*382 _0363_
*383 _0364_
*384 _0365_
*385 _0366_
*386 _0367_
*387 _0368_
*388 _0369_
*389 _0370_
*390 _0371_
*391 _0372_
*392 _0373_
*393 _0374_
*394 _0375_
*395 _0376_
*396 _0377_
*397 _0378_
*398 _0379_
*399 _0380_
*400 _0381_
*401 _0382_
*402 _0383_
*403 _0384_
*404 _0385_
*405 _0386_
*406 _0387_
*407 _0388_
*408 _0389_
*409 _0390_
*410 _0391_
*411 _0392_
*412 _0393_
*413 _0394_
*414 _0395_
*415 _0396_
*416 _0397_
*417 _0398_
*418 _0399_
*419 _0400_
*420 _0401_
*421 _0402_
*422 _0403_
*423 _0404_
*424 _0405_
*425 _0406_
*426 _0407_
*427 _0408_
*428 _0409_
*429 _0410_
*430 _0411_
*431 _0412_
*432 _0413_
*433 _0414_
*434 _0415_
*435 _0416_
*436 _0417_
*437 _0418_
*438 _0419_
*439 _0420_
*440 _0421_
*441 _0422_
*442 _0423_
*443 _0424_
*444 _0425_
*445 _0426_
*446 _0427_
*447 _0428_
*448 _0429_
*449 _0430_
*450 _0431_
*451 _0432_
*452 _0433_
*453 _0434_
*454 _0435_
*455 _0436_
*456 _0437_
*457 _0438_
*458 _0439_
*459 _0440_
*460 _0441_
*461 _0442_
*462 _0443_
*463 _0444_
*464 _0445_
*465 _0446_
*466 _0447_
*467 _0448_
*468 _0449_
*469 _0450_
*470 _0451_
*471 _0452_
*472 _0453_
*473 _0454_
*474 _0455_
*475 _0456_
*476 _0457_
*477 _0458_
*478 _0459_
*479 _0460_
*480 _0461_
*481 _0462_
*482 _0463_
*483 _0464_
*484 _0465_
*485 _0466_
*486 _0467_
*487 _0468_
*488 _0469_
*489 _0470_
*490 _0471_
*491 _0472_
*492 _0473_
*493 _0474_
*494 _0475_
*495 _0476_
*496 _0477_
*497 _0478_
*498 _0479_
*499 _0480_
*500 _0481_
*501 _0482_
*502 _0483_
*503 _0484_
*504 _0485_
*505 _0486_
*506 _0487_
*507 _0488_
*508 _0489_
*509 _0490_
*510 _0491_
*511 _0492_
*512 _0493_
*513 _0494_
*514 _0495_
*515 _0496_
*516 _0497_
*517 _0498_
*518 _0499_
*519 _0500_
*520 _0501_
*521 _0502_
*522 _0503_
*523 _0504_
*524 _0505_
*525 _0506_
*526 _0507_
*527 _0508_
*528 _0509_
*529 _0510_
*530 _0511_
*531 _0512_
*532 _0513_
*533 _0514_
*534 _0515_
*535 _0516_
*536 _0517_
*537 _0518_
*538 _0519_
*539 _0520_
*540 _0521_
*541 _0522_
*542 _0523_
*543 _0524_
*544 _0525_
*545 _0526_
*546 _0527_
*547 _0528_
*548 _0529_
*549 _0530_
*550 _0531_
*551 _0532_
*552 _0533_
*553 _0534_
*554 _0535_
*555 _0536_
*556 _0537_
*557 _0538_
*558 _0539_
*559 _0540_
*560 _0541_
*561 _0542_
*562 _0543_
*563 _0544_
*564 _0545_
*565 _0546_
*566 _0547_
*567 _0548_
*568 _0549_
*569 _0550_
*570 _0551_
*571 _0552_
*572 _0553_
*573 _0554_
*574 _0555_
*575 _0556_
*576 _0557_
*577 _0558_
*578 _0559_
*579 _0560_
*580 _0561_
*581 _0562_
*582 _0563_
*583 _0564_
*584 _0565_
*585 _0566_
*586 _0567_
*587 _0568_
*588 _0569_
*589 _0570_
*590 _0571_
*591 _0572_
*592 _0573_
*593 _0574_
*594 _0575_
*595 _0576_
*596 _0577_
*597 _0578_
*598 _0579_
*599 _0580_
*600 _0581_
*601 _0582_
*602 _0583_
*603 _0584_
*604 _0585_
*605 _0586_
*606 _0587_
*607 _0588_
*608 _0589_
*609 _0590_
*610 _0591_
*611 _0592_
*612 _0593_
*613 _0594_
*614 _0595_
*615 _0596_
*616 _0597_
*617 _0598_
*618 _0599_
*619 _0600_
*620 _0601_
*621 _0602_
*622 _0603_
*623 _0604_
*624 _0605_
*625 _0606_
*626 _0607_
*627 _0608_
*628 _0609_
*629 _0610_
*630 _0611_
*631 _0612_
*632 _0613_
*633 _0614_
*634 _0615_
*635 _0616_
*636 _0617_
*637 _0618_
*638 _0619_
*639 _0620_
*640 _0621_
*641 _0622_
*642 _0623_
*643 _0624_
*644 _0625_
*645 _0626_
*646 _0627_
*647 _0628_
*648 _0629_
*649 _0630_
*650 _0631_
*651 _0632_
*652 _0633_
*653 _0634_
*654 _0635_
*655 _0636_
*656 _0637_
*657 _0638_
*658 _0639_
*659 _0640_
*660 _0641_
*661 _0642_
*662 _0643_
*663 _0644_
*664 _0645_
*665 _0646_
*666 _0647_
*667 _0648_
*668 _0649_
*669 _0650_
*670 _0651_
*671 _0652_
*672 _0653_
*673 _0654_
*674 _0655_
*675 _0656_
*676 _0657_
*677 _0658_
*678 _0659_
*679 _0660_
*680 _0661_
*681 _0662_
*682 _0663_
*683 _0664_
*684 _0665_
*685 _0666_
*686 _0667_
*687 _0668_
*688 _0669_
*689 _0670_
*690 _0671_
*691 _0672_
*692 _0673_
*693 _0674_
*694 _0675_
*695 _0676_
*696 _0677_
*697 _0678_
*698 _0679_
*699 _0680_
*700 _0681_
*701 _0682_
*702 _0683_
*703 _0684_
*704 _0685_
*705 _0686_
*706 _0687_
*707 _0688_
*708 _0689_
*709 _0690_
*710 _0691_
*711 _0692_
*712 _0693_
*713 _0694_
*714 _0695_
*715 _0696_
*716 _0697_
*717 _0698_
*718 _0699_
*719 _0700_
*720 _0701_
*721 _0702_
*722 _0703_
*723 _0704_
*724 _0705_
*725 _0706_
*726 _0707_
*727 _0708_
*728 _0709_
*729 _0710_
*730 _0711_
*731 _0712_
*732 _0713_
*733 _0714_
*734 _0715_
*735 _0716_
*736 _0717_
*737 _0718_
*738 _0719_
*739 _0720_
*740 _0721_
*741 _0722_
*742 _0723_
*743 _0724_
*744 _0725_
*745 _0726_
*746 _0727_
*747 _0728_
*748 _0729_
*749 _0730_
*750 _0731_
*751 _0732_
*752 _0733_
*753 _0734_
*754 _0735_
*755 _0736_
*756 _0737_
*757 _0738_
*758 _0739_
*759 _0740_
*760 _0741_
*761 _0742_
*762 _0743_
*763 _0744_
*764 _0745_
*765 _0746_
*766 _0747_
*767 _0748_
*768 _0749_
*769 _0750_
*770 _0751_
*771 _0752_
*772 _0753_
*773 _0754_
*774 _0755_
*775 _0756_
*776 _0757_
*777 _0758_
*778 _0759_
*779 _0760_
*780 _0761_
*781 _0762_
*782 _0763_
*783 _0764_
*784 _0765_
*785 _0766_
*786 _0767_
*787 _0768_
*788 _0769_
*789 _0770_
*790 _0771_
*791 _0772_
*792 _0773_
*793 _0774_
*794 _0775_
*795 _0776_
*796 _0777_
*797 _0778_
*798 _0779_
*799 _0780_
*800 _0781_
*801 _0782_
*802 _0783_
*803 _0784_
*804 _0785_
*805 _0786_
*806 _0787_
*807 _0788_
*808 _0789_
*809 _0790_
*810 _0791_
*811 _0792_
*812 _0793_
*813 _0794_
*814 _0795_
*815 _0796_
*816 _0797_
*817 _0798_
*818 _0799_
*819 _0800_
*820 _0801_
*821 _0802_
*822 _0803_
*823 _0804_
*824 _0805_
*825 _0806_
*826 _0807_
*827 _0808_
*828 _0809_
*829 _0810_
*830 _0811_
*831 _0812_
*832 _0813_
*833 _0814_
*834 _0815_
*835 _0816_
*836 _0817_
*837 _0818_
*838 _0819_
*839 _0820_
*840 _0821_
*841 _0822_
*842 _0823_
*843 _0824_
*844 _0825_
*845 _0826_
*846 _0827_
*847 _0828_
*848 _0829_
*849 _0830_
*850 _0831_
*851 _0832_
*852 _0833_
*853 _0834_
*854 _0835_
*855 _0836_
*856 _0837_
*857 _0838_
*858 _0839_
*859 _0840_
*860 _0841_
*861 _0842_
*862 _0843_
*863 _0844_
*864 _0845_
*865 _0846_
*866 _0847_
*867 _0848_
*868 _0849_
*869 _0850_
*870 _0851_
*871 _0852_
*872 _0853_
*873 _0854_
*874 _0855_
*875 _0856_
*876 _0857_
*877 _0858_
*878 _0859_
*879 _0860_
*880 _0861_
*881 _0862_
*882 _0863_
*883 _0864_
*884 _0865_
*885 _0866_
*886 _0867_
*887 _0868_
*888 _0869_
*889 _0870_
*890 _0871_
*891 _0872_
*892 _0873_
*893 _0874_
*894 _0875_
*895 _0876_
*896 _0877_
*897 _0878_
*898 _0879_
*899 _0880_
*900 _0881_
*901 _0882_
*902 _0883_
*903 _0884_
*904 _0885_
*905 _0886_
*906 _0887_
*907 _0888_
*908 _0889_
*909 _0890_
*910 _0891_
*911 _0892_
*912 _0893_
*913 _0894_
*914 _0895_
*915 _0896_
*916 _0897_
*917 _0898_
*918 _0899_
*919 _0900_
*920 _0901_
*921 _0902_
*922 _0903_
*923 _0904_
*924 _0905_
*925 _0906_
*926 _0907_
*927 _0908_
*928 clknet_0_io_in[0]
*929 clknet_4_0_0_io_in[0]
*930 clknet_4_10_0_io_in[0]
*931 clknet_4_11_0_io_in[0]
*932 clknet_4_12_0_io_in[0]
*933 clknet_4_13_0_io_in[0]
*934 clknet_4_14_0_io_in[0]
*935 clknet_4_15_0_io_in[0]
*936 clknet_4_1_0_io_in[0]
*937 clknet_4_2_0_io_in[0]
*938 clknet_4_3_0_io_in[0]
*939 clknet_4_4_0_io_in[0]
*940 clknet_4_5_0_io_in[0]
*941 clknet_4_6_0_io_in[0]
*942 clknet_4_7_0_io_in[0]
*943 clknet_4_8_0_io_in[0]
*944 clknet_4_9_0_io_in[0]
*945 net1
*946 net2
*947 net3
*948 net4
*949 net5
*950 net6
*951 net7
*952 nibble
*953 r_a\[0\]
*954 r_a\[1\]
*955 r_a\[2\]
*956 r_a\[3\]
*957 r_a\[4\]
*958 r_a\[5\]
*959 r_a\[6\]
*960 r_a\[7\]
*961 r_b\[0\]
*962 r_b\[1\]
*963 r_b\[2\]
*964 r_b\[3\]
*965 r_b\[4\]
*966 r_b\[5\]
*967 r_b\[6\]
*968 r_b\[7\]
*969 r_c
*970 r_ee\[0\]
*971 r_ee\[1\]
*972 r_ee\[2\]
*973 r_ee\[3\]
*974 r_ee\[4\]
*975 r_h\[0\]
*976 r_h\[1\]
*977 r_h\[2\]
*978 r_h\[3\]
*979 r_ins\[0\]
*980 r_ins\[1\]
*981 r_ins\[2\]
*982 r_ins\[3\]
*983 r_l\[0\]
*984 r_l\[1\]
*985 r_l\[2\]
*986 r_l\[3\]
*987 r_local_ram\[0\]\[0\]
*988 r_local_ram\[0\]\[1\]
*989 r_local_ram\[0\]\[2\]
*990 r_local_ram\[0\]\[3\]
*991 r_local_ram\[0\]\[4\]
*992 r_local_ram\[0\]\[5\]
*993 r_local_ram\[0\]\[6\]
*994 r_local_ram\[0\]\[7\]
*995 r_local_ram\[1\]\[0\]
*996 r_local_ram\[1\]\[1\]
*997 r_local_ram\[1\]\[2\]
*998 r_local_ram\[1\]\[3\]
*999 r_local_ram\[1\]\[4\]
*1000 r_local_ram\[1\]\[5\]
*1001 r_local_ram\[1\]\[6\]
*1002 r_local_ram\[1\]\[7\]
*1003 r_local_ram\[2\]\[0\]
*1004 r_local_ram\[2\]\[1\]
*1005 r_local_ram\[2\]\[2\]
*1006 r_local_ram\[2\]\[3\]
*1007 r_local_ram\[2\]\[4\]
*1008 r_local_ram\[2\]\[5\]
*1009 r_local_ram\[2\]\[6\]
*1010 r_local_ram\[2\]\[7\]
*1011 r_local_ram\[3\]\[0\]
*1012 r_local_ram\[3\]\[1\]
*1013 r_local_ram\[3\]\[2\]
*1014 r_local_ram\[3\]\[3\]
*1015 r_local_ram\[3\]\[4\]
*1016 r_local_ram\[3\]\[5\]
*1017 r_local_ram\[3\]\[6\]
*1018 r_local_ram\[3\]\[7\]
*1019 r_pc\[0\]
*1020 r_pc\[10\]
*1021 r_pc\[11\]
*1022 r_pc\[1\]
*1023 r_pc\[2\]
*1024 r_pc\[3\]
*1025 r_pc\[4\]
*1026 r_pc\[5\]
*1027 r_pc\[6\]
*1028 r_pc\[7\]
*1029 r_pc\[8\]
*1030 r_pc\[9\]
*1031 r_phase\[0\]
*1032 r_phase\[1\]
*1033 r_phase\[2\]
*1034 r_phase\[3\]
*1035 r_s0\[0\]
*1036 r_s0\[10\]
*1037 r_s0\[11\]
*1038 r_s0\[1\]
*1039 r_s0\[2\]
*1040 r_s0\[3\]
*1041 r_s0\[4\]
*1042 r_s0\[5\]
*1043 r_s0\[6\]
*1044 r_s0\[7\]
*1045 r_s0\[8\]
*1046 r_s0\[9\]
*1047 r_s1\[0\]
*1048 r_s1\[10\]
*1049 r_s1\[11\]
*1050 r_s1\[1\]
*1051 r_s1\[2\]
*1052 r_s1\[3\]
*1053 r_s1\[4\]
*1054 r_s1\[5\]
*1055 r_s1\[6\]
*1056 r_s1\[7\]
*1057 r_s1\[8\]
*1058 r_s1\[9\]
*1059 r_v\[0\]
*1060 r_v\[1\]
*1061 r_v\[2\]
*1062 r_v\[3\]
*1063 r_x\[0\]
*1064 r_x\[10\]
*1065 r_x\[11\]
*1066 r_x\[12\]
*1067 r_x\[1\]
*1068 r_x\[2\]
*1069 r_x\[3\]
*1070 r_x\[4\]
*1071 r_x\[5\]
*1072 r_x\[6\]
*1073 r_x\[7\]
*1074 r_x\[8\]
*1075 r_x\[9\]
*1076 r_y\[0\]
*1077 r_y\[10\]
*1078 r_y\[11\]
*1079 r_y\[12\]
*1080 r_y\[1\]
*1081 r_y\[2\]
*1082 r_y\[3\]
*1083 r_y\[4\]
*1084 r_y\[5\]
*1085 r_y\[6\]
*1086 r_y\[7\]
*1087 r_y\[8\]
*1088 r_y\[9\]
*1089 strobe_out
*1090 ANTENNA_1
*1091 ANTENNA_2
*1092 FILLER_0_109
*1093 FILLER_0_113
*1094 FILLER_0_117
*1095 FILLER_0_121
*1096 FILLER_0_128
*1097 FILLER_0_135
*1098 FILLER_0_139
*1099 FILLER_0_141
*1100 FILLER_0_147
*1101 FILLER_0_151
*1102 FILLER_0_158
*1103 FILLER_0_165
*1104 FILLER_0_169
*1105 FILLER_0_174
*1106 FILLER_0_183
*1107 FILLER_0_190
*1108 FILLER_0_197
*1109 FILLER_0_202
*1110 FILLER_0_209
*1111 FILLER_0_21
*1112 FILLER_0_216
*1113 FILLER_0_225
*1114 FILLER_0_237
*1115 FILLER_0_249
*1116 FILLER_0_253
*1117 FILLER_0_265
*1118 FILLER_0_27
*1119 FILLER_0_277
*1120 FILLER_0_281
*1121 FILLER_0_29
*1122 FILLER_0_293
*1123 FILLER_0_3
*1124 FILLER_0_47
*1125 FILLER_0_54
*1126 FILLER_0_57
*1127 FILLER_0_68
*1128 FILLER_0_75
*1129 FILLER_0_82
*1130 FILLER_0_85
*1131 FILLER_0_96
*1132 FILLER_10_108
*1133 FILLER_10_128
*1134 FILLER_10_137
*1135 FILLER_10_141
*1136 FILLER_10_147
*1137 FILLER_10_152
*1138 FILLER_10_163
*1139 FILLER_10_172
*1140 FILLER_10_183
*1141 FILLER_10_190
*1142 FILLER_10_197
*1143 FILLER_10_207
*1144 FILLER_10_21
*1145 FILLER_10_217
*1146 FILLER_10_225
*1147 FILLER_10_231
*1148 FILLER_10_241
*1149 FILLER_10_250
*1150 FILLER_10_253
*1151 FILLER_10_258
*1152 FILLER_10_27
*1153 FILLER_10_270
*1154 FILLER_10_282
*1155 FILLER_10_29
*1156 FILLER_10_294
*1157 FILLER_10_298
*1158 FILLER_10_3
*1159 FILLER_10_52
*1160 FILLER_10_58
*1161 FILLER_10_62
*1162 FILLER_10_82
*1163 FILLER_10_85
*1164 FILLER_11_108
*1165 FILLER_11_113
*1166 FILLER_11_119
*1167 FILLER_11_140
*1168 FILLER_11_146
*1169 FILLER_11_155
*1170 FILLER_11_165
*1171 FILLER_11_169
*1172 FILLER_11_179
*1173 FILLER_11_187
*1174 FILLER_11_19
*1175 FILLER_11_194
*1176 FILLER_11_200
*1177 FILLER_11_209
*1178 FILLER_11_218
*1179 FILLER_11_225
*1180 FILLER_11_229
*1181 FILLER_11_237
*1182 FILLER_11_245
*1183 FILLER_11_256
*1184 FILLER_11_263
*1185 FILLER_11_27
*1186 FILLER_11_270
*1187 FILLER_11_278
*1188 FILLER_11_281
*1189 FILLER_11_293
*1190 FILLER_11_3
*1191 FILLER_11_38
*1192 FILLER_11_44
*1193 FILLER_11_54
*1194 FILLER_11_57
*1195 FILLER_11_68
*1196 FILLER_11_74
*1197 FILLER_11_9
*1198 FILLER_11_91
*1199 FILLER_12_108
*1200 FILLER_12_114
*1201 FILLER_12_131
*1202 FILLER_12_138
*1203 FILLER_12_141
*1204 FILLER_12_152
*1205 FILLER_12_156
*1206 FILLER_12_165
*1207 FILLER_12_169
*1208 FILLER_12_179
*1209 FILLER_12_189
*1210 FILLER_12_195
*1211 FILLER_12_197
*1212 FILLER_12_207
*1213 FILLER_12_21
*1214 FILLER_12_219
*1215 FILLER_12_223
*1216 FILLER_12_231
*1217 FILLER_12_242
*1218 FILLER_12_249
*1219 FILLER_12_253
*1220 FILLER_12_263
*1221 FILLER_12_27
*1222 FILLER_12_270
*1223 FILLER_12_282
*1224 FILLER_12_29
*1225 FILLER_12_294
*1226 FILLER_12_298
*1227 FILLER_12_3
*1228 FILLER_12_47
*1229 FILLER_12_60
*1230 FILLER_12_73
*1231 FILLER_12_8
*1232 FILLER_12_82
*1233 FILLER_12_85
*1234 FILLER_12_96
*1235 FILLER_13_104
*1236 FILLER_13_110
*1237 FILLER_13_113
*1238 FILLER_13_124
*1239 FILLER_13_132
*1240 FILLER_13_144
*1241 FILLER_13_151
*1242 FILLER_13_166
*1243 FILLER_13_169
*1244 FILLER_13_176
*1245 FILLER_13_185
*1246 FILLER_13_197
*1247 FILLER_13_205
*1248 FILLER_13_21
*1249 FILLER_13_214
*1250 FILLER_13_221
*1251 FILLER_13_225
*1252 FILLER_13_233
*1253 FILLER_13_239
*1254 FILLER_13_247
*1255 FILLER_13_25
*1256 FILLER_13_257
*1257 FILLER_13_264
*1258 FILLER_13_276
*1259 FILLER_13_281
*1260 FILLER_13_29
*1261 FILLER_13_293
*1262 FILLER_13_3
*1263 FILLER_13_36
*1264 FILLER_13_43
*1265 FILLER_13_54
*1266 FILLER_13_57
*1267 FILLER_13_63
*1268 FILLER_13_75
*1269 FILLER_13_86
*1270 FILLER_13_96
*1271 FILLER_14_116
*1272 FILLER_14_124
*1273 FILLER_14_134
*1274 FILLER_14_141
*1275 FILLER_14_151
*1276 FILLER_14_162
*1277 FILLER_14_173
*1278 FILLER_14_183
*1279 FILLER_14_193
*1280 FILLER_14_197
*1281 FILLER_14_20
*1282 FILLER_14_205
*1283 FILLER_14_217
*1284 FILLER_14_225
*1285 FILLER_14_236
*1286 FILLER_14_243
*1287 FILLER_14_250
*1288 FILLER_14_253
*1289 FILLER_14_258
*1290 FILLER_14_270
*1291 FILLER_14_282
*1292 FILLER_14_29
*1293 FILLER_14_294
*1294 FILLER_14_298
*1295 FILLER_14_3
*1296 FILLER_14_40
*1297 FILLER_14_60
*1298 FILLER_14_66
*1299 FILLER_14_76
*1300 FILLER_14_85
*1301 FILLER_14_96
*1302 FILLER_15_106
*1303 FILLER_15_113
*1304 FILLER_15_119
*1305 FILLER_15_133
*1306 FILLER_15_148
*1307 FILLER_15_152
*1308 FILLER_15_166
*1309 FILLER_15_169
*1310 FILLER_15_177
*1311 FILLER_15_184
*1312 FILLER_15_188
*1313 FILLER_15_197
*1314 FILLER_15_21
*1315 FILLER_15_211
*1316 FILLER_15_222
*1317 FILLER_15_225
*1318 FILLER_15_238
*1319 FILLER_15_245
*1320 FILLER_15_252
*1321 FILLER_15_259
*1322 FILLER_15_271
*1323 FILLER_15_279
*1324 FILLER_15_281
*1325 FILLER_15_29
*1326 FILLER_15_293
*1327 FILLER_15_3
*1328 FILLER_15_51
*1329 FILLER_15_55
*1330 FILLER_15_57
*1331 FILLER_15_70
*1332 FILLER_15_77
*1333 FILLER_15_90
*1334 FILLER_16_107
*1335 FILLER_16_111
*1336 FILLER_16_128
*1337 FILLER_16_138
*1338 FILLER_16_141
*1339 FILLER_16_15
*1340 FILLER_16_158
*1341 FILLER_16_169
*1342 FILLER_16_181
*1343 FILLER_16_185
*1344 FILLER_16_19
*1345 FILLER_16_194
*1346 FILLER_16_197
*1347 FILLER_16_208
*1348 FILLER_16_223
*1349 FILLER_16_229
*1350 FILLER_16_238
*1351 FILLER_16_250
*1352 FILLER_16_253
*1353 FILLER_16_26
*1354 FILLER_16_261
*1355 FILLER_16_273
*1356 FILLER_16_285
*1357 FILLER_16_29
*1358 FILLER_16_297
*1359 FILLER_16_3
*1360 FILLER_16_47
*1361 FILLER_16_57
*1362 FILLER_16_78
*1363 FILLER_16_85
*1364 FILLER_16_9
*1365 FILLER_16_98
*1366 FILLER_17_110
*1367 FILLER_17_113
*1368 FILLER_17_120
*1369 FILLER_17_124
*1370 FILLER_17_131
*1371 FILLER_17_145
*1372 FILLER_17_15
*1373 FILLER_17_156
*1374 FILLER_17_160
*1375 FILLER_17_165
*1376 FILLER_17_169
*1377 FILLER_17_176
*1378 FILLER_17_185
*1379 FILLER_17_191
*1380 FILLER_17_196
*1381 FILLER_17_205
*1382 FILLER_17_213
*1383 FILLER_17_220
*1384 FILLER_17_225
*1385 FILLER_17_230
*1386 FILLER_17_244
*1387 FILLER_17_251
*1388 FILLER_17_258
*1389 FILLER_17_270
*1390 FILLER_17_278
*1391 FILLER_17_281
*1392 FILLER_17_293
*1393 FILLER_17_3
*1394 FILLER_17_35
*1395 FILLER_17_42
*1396 FILLER_17_53
*1397 FILLER_17_57
*1398 FILLER_17_65
*1399 FILLER_17_75
*1400 FILLER_17_8
*1401 FILLER_17_86
*1402 FILLER_18_105
*1403 FILLER_18_109
*1404 FILLER_18_118
*1405 FILLER_18_132
*1406 FILLER_18_141
*1407 FILLER_18_150
*1408 FILLER_18_158
*1409 FILLER_18_176
*1410 FILLER_18_186
*1411 FILLER_18_194
*1412 FILLER_18_197
*1413 FILLER_18_20
*1414 FILLER_18_202
*1415 FILLER_18_210
*1416 FILLER_18_223
*1417 FILLER_18_231
*1418 FILLER_18_241
*1419 FILLER_18_250
*1420 FILLER_18_253
*1421 FILLER_18_260
*1422 FILLER_18_272
*1423 FILLER_18_284
*1424 FILLER_18_29
*1425 FILLER_18_296
*1426 FILLER_18_3
*1427 FILLER_18_40
*1428 FILLER_18_64
*1429 FILLER_18_74
*1430 FILLER_18_82
*1431 FILLER_18_85
*1432 FILLER_18_96
*1433 FILLER_19_108
*1434 FILLER_19_113
*1435 FILLER_19_117
*1436 FILLER_19_123
*1437 FILLER_19_135
*1438 FILLER_19_142
*1439 FILLER_19_154
*1440 FILLER_19_163
*1441 FILLER_19_167
*1442 FILLER_19_169
*1443 FILLER_19_180
*1444 FILLER_19_188
*1445 FILLER_19_194
*1446 FILLER_19_203
*1447 FILLER_19_21
*1448 FILLER_19_210
*1449 FILLER_19_222
*1450 FILLER_19_225
*1451 FILLER_19_231
*1452 FILLER_19_240
*1453 FILLER_19_246
*1454 FILLER_19_253
*1455 FILLER_19_262
*1456 FILLER_19_274
*1457 FILLER_19_28
*1458 FILLER_19_281
*1459 FILLER_19_293
*1460 FILLER_19_3
*1461 FILLER_19_39
*1462 FILLER_19_54
*1463 FILLER_19_57
*1464 FILLER_19_75
*1465 FILLER_19_85
*1466 FILLER_19_91
*1467 FILLER_1_110
*1468 FILLER_1_113
*1469 FILLER_1_117
*1470 FILLER_1_134
*1471 FILLER_1_154
*1472 FILLER_1_161
*1473 FILLER_1_167
*1474 FILLER_1_169
*1475 FILLER_1_187
*1476 FILLER_1_195
*1477 FILLER_1_202
*1478 FILLER_1_209
*1479 FILLER_1_216
*1480 FILLER_1_225
*1481 FILLER_1_237
*1482 FILLER_1_249
*1483 FILLER_1_261
*1484 FILLER_1_273
*1485 FILLER_1_279
*1486 FILLER_1_281
*1487 FILLER_1_29
*1488 FILLER_1_293
*1489 FILLER_1_3
*1490 FILLER_1_37
*1491 FILLER_1_54
*1492 FILLER_1_57
*1493 FILLER_1_77
*1494 FILLER_1_9
*1495 FILLER_1_99
*1496 FILLER_20_101
*1497 FILLER_20_108
*1498 FILLER_20_118
*1499 FILLER_20_127
*1500 FILLER_20_136
*1501 FILLER_20_141
*1502 FILLER_20_154
*1503 FILLER_20_158
*1504 FILLER_20_162
*1505 FILLER_20_177
*1506 FILLER_20_186
*1507 FILLER_20_193
*1508 FILLER_20_197
*1509 FILLER_20_20
*1510 FILLER_20_203
*1511 FILLER_20_211
*1512 FILLER_20_217
*1513 FILLER_20_227
*1514 FILLER_20_235
*1515 FILLER_20_244
*1516 FILLER_20_253
*1517 FILLER_20_259
*1518 FILLER_20_271
*1519 FILLER_20_283
*1520 FILLER_20_29
*1521 FILLER_20_295
*1522 FILLER_20_3
*1523 FILLER_20_52
*1524 FILLER_20_62
*1525 FILLER_20_82
*1526 FILLER_20_85
*1527 FILLER_20_90
*1528 FILLER_21_100
*1529 FILLER_21_109
*1530 FILLER_21_126
*1531 FILLER_21_130
*1532 FILLER_21_137
*1533 FILLER_21_154
*1534 FILLER_21_163
*1535 FILLER_21_167
*1536 FILLER_21_169
*1537 FILLER_21_177
*1538 FILLER_21_185
*1539 FILLER_21_192
*1540 FILLER_21_198
*1541 FILLER_21_204
*1542 FILLER_21_21
*1543 FILLER_21_213
*1544 FILLER_21_222
*1545 FILLER_21_225
*1546 FILLER_21_229
*1547 FILLER_21_235
*1548 FILLER_21_244
*1549 FILLER_21_251
*1550 FILLER_21_263
*1551 FILLER_21_275
*1552 FILLER_21_279
*1553 FILLER_21_28
*1554 FILLER_21_281
*1555 FILLER_21_293
*1556 FILLER_21_3
*1557 FILLER_21_41
*1558 FILLER_21_47
*1559 FILLER_21_54
*1560 FILLER_21_57
*1561 FILLER_21_67
*1562 FILLER_21_75
*1563 FILLER_21_87
*1564 FILLER_22_118
*1565 FILLER_22_128
*1566 FILLER_22_138
*1567 FILLER_22_141
*1568 FILLER_22_15
*1569 FILLER_22_160
*1570 FILLER_22_172
*1571 FILLER_22_181
*1572 FILLER_22_187
*1573 FILLER_22_19
*1574 FILLER_22_194
*1575 FILLER_22_197
*1576 FILLER_22_201
*1577 FILLER_22_211
*1578 FILLER_22_218
*1579 FILLER_22_228
*1580 FILLER_22_232
*1581 FILLER_22_250
*1582 FILLER_22_253
*1583 FILLER_22_258
*1584 FILLER_22_26
*1585 FILLER_22_270
*1586 FILLER_22_282
*1587 FILLER_22_29
*1588 FILLER_22_294
*1589 FILLER_22_298
*1590 FILLER_22_3
*1591 FILLER_22_47
*1592 FILLER_22_58
*1593 FILLER_22_66
*1594 FILLER_22_75
*1595 FILLER_22_82
*1596 FILLER_22_85
*1597 FILLER_22_9
*1598 FILLER_22_98
*1599 FILLER_23_105
*1600 FILLER_23_111
*1601 FILLER_23_113
*1602 FILLER_23_118
*1603 FILLER_23_128
*1604 FILLER_23_141
*1605 FILLER_23_147
*1606 FILLER_23_15
*1607 FILLER_23_157
*1608 FILLER_23_166
*1609 FILLER_23_169
*1610 FILLER_23_184
*1611 FILLER_23_193
*1612 FILLER_23_199
*1613 FILLER_23_216
*1614 FILLER_23_225
*1615 FILLER_23_230
*1616 FILLER_23_251
*1617 FILLER_23_263
*1618 FILLER_23_275
*1619 FILLER_23_279
*1620 FILLER_23_281
*1621 FILLER_23_293
*1622 FILLER_23_3
*1623 FILLER_23_35
*1624 FILLER_23_43
*1625 FILLER_23_54
*1626 FILLER_23_57
*1627 FILLER_23_75
*1628 FILLER_23_8
*1629 FILLER_24_106
*1630 FILLER_24_130
*1631 FILLER_24_138
*1632 FILLER_24_141
*1633 FILLER_24_148
*1634 FILLER_24_159
*1635 FILLER_24_170
*1636 FILLER_24_176
*1637 FILLER_24_181
*1638 FILLER_24_192
*1639 FILLER_24_197
*1640 FILLER_24_201
*1641 FILLER_24_209
*1642 FILLER_24_21
*1643 FILLER_24_217
*1644 FILLER_24_221
*1645 FILLER_24_231
*1646 FILLER_24_240
*1647 FILLER_24_253
*1648 FILLER_24_265
*1649 FILLER_24_27
*1650 FILLER_24_277
*1651 FILLER_24_289
*1652 FILLER_24_29
*1653 FILLER_24_297
*1654 FILLER_24_3
*1655 FILLER_24_53
*1656 FILLER_24_59
*1657 FILLER_24_68
*1658 FILLER_24_74
*1659 FILLER_24_82
*1660 FILLER_24_85
*1661 FILLER_24_93
*1662 FILLER_25_104
*1663 FILLER_25_113
*1664 FILLER_25_118
*1665 FILLER_25_125
*1666 FILLER_25_138
*1667 FILLER_25_152
*1668 FILLER_25_164
*1669 FILLER_25_169
*1670 FILLER_25_18
*1671 FILLER_25_186
*1672 FILLER_25_197
*1673 FILLER_25_203
*1674 FILLER_25_211
*1675 FILLER_25_215
*1676 FILLER_25_222
*1677 FILLER_25_225
*1678 FILLER_25_230
*1679 FILLER_25_234
*1680 FILLER_25_241
*1681 FILLER_25_251
*1682 FILLER_25_263
*1683 FILLER_25_275
*1684 FILLER_25_279
*1685 FILLER_25_281
*1686 FILLER_25_293
*1687 FILLER_25_3
*1688 FILLER_25_33
*1689 FILLER_25_41
*1690 FILLER_25_46
*1691 FILLER_25_54
*1692 FILLER_25_57
*1693 FILLER_25_64
*1694 FILLER_25_77
*1695 FILLER_25_85
*1696 FILLER_25_94
*1697 FILLER_26_106
*1698 FILLER_26_110
*1699 FILLER_26_12
*1700 FILLER_26_127
*1701 FILLER_26_136
*1702 FILLER_26_141
*1703 FILLER_26_147
*1704 FILLER_26_155
*1705 FILLER_26_164
*1706 FILLER_26_172
*1707 FILLER_26_19
*1708 FILLER_26_194
*1709 FILLER_26_197
*1710 FILLER_26_212
*1711 FILLER_26_219
*1712 FILLER_26_223
*1713 FILLER_26_231
*1714 FILLER_26_238
*1715 FILLER_26_250
*1716 FILLER_26_253
*1717 FILLER_26_26
*1718 FILLER_26_260
*1719 FILLER_26_272
*1720 FILLER_26_284
*1721 FILLER_26_29
*1722 FILLER_26_296
*1723 FILLER_26_3
*1724 FILLER_26_36
*1725 FILLER_26_40
*1726 FILLER_26_44
*1727 FILLER_26_56
*1728 FILLER_26_67
*1729 FILLER_26_82
*1730 FILLER_26_85
*1731 FILLER_26_92
*1732 FILLER_26_96
*1733 FILLER_27_106
*1734 FILLER_27_113
*1735 FILLER_27_123
*1736 FILLER_27_127
*1737 FILLER_27_148
*1738 FILLER_27_158
*1739 FILLER_27_166
*1740 FILLER_27_169
*1741 FILLER_27_17
*1742 FILLER_27_180
*1743 FILLER_27_184
*1744 FILLER_27_192
*1745 FILLER_27_200
*1746 FILLER_27_21
*1747 FILLER_27_218
*1748 FILLER_27_225
*1749 FILLER_27_243
*1750 FILLER_27_256
*1751 FILLER_27_266
*1752 FILLER_27_273
*1753 FILLER_27_279
*1754 FILLER_27_281
*1755 FILLER_27_293
*1756 FILLER_27_3
*1757 FILLER_27_31
*1758 FILLER_27_35
*1759 FILLER_27_52
*1760 FILLER_27_57
*1761 FILLER_27_64
*1762 FILLER_27_7
*1763 FILLER_27_75
*1764 FILLER_27_91
*1765 FILLER_28_106
*1766 FILLER_28_117
*1767 FILLER_28_121
*1768 FILLER_28_138
*1769 FILLER_28_141
*1770 FILLER_28_151
*1771 FILLER_28_162
*1772 FILLER_28_175
*1773 FILLER_28_179
*1774 FILLER_28_189
*1775 FILLER_28_195
*1776 FILLER_28_197
*1777 FILLER_28_205
*1778 FILLER_28_21
*1779 FILLER_28_212
*1780 FILLER_28_220
*1781 FILLER_28_224
*1782 FILLER_28_231
*1783 FILLER_28_239
*1784 FILLER_28_246
*1785 FILLER_28_253
*1786 FILLER_28_260
*1787 FILLER_28_27
*1788 FILLER_28_272
*1789 FILLER_28_284
*1790 FILLER_28_29
*1791 FILLER_28_296
*1792 FILLER_28_3
*1793 FILLER_28_36
*1794 FILLER_28_46
*1795 FILLER_28_54
*1796 FILLER_28_60
*1797 FILLER_28_70
*1798 FILLER_28_79
*1799 FILLER_28_83
*1800 FILLER_28_85
*1801 FILLER_28_96
*1802 FILLER_29_110
*1803 FILLER_29_113
*1804 FILLER_29_124
*1805 FILLER_29_134
*1806 FILLER_29_140
*1807 FILLER_29_149
*1808 FILLER_29_161
*1809 FILLER_29_167
*1810 FILLER_29_169
*1811 FILLER_29_17
*1812 FILLER_29_174
*1813 FILLER_29_194
*1814 FILLER_29_205
*1815 FILLER_29_211
*1816 FILLER_29_218
*1817 FILLER_29_225
*1818 FILLER_29_245
*1819 FILLER_29_251
*1820 FILLER_29_259
*1821 FILLER_29_269
*1822 FILLER_29_277
*1823 FILLER_29_281
*1824 FILLER_29_293
*1825 FILLER_29_3
*1826 FILLER_29_34
*1827 FILLER_29_44
*1828 FILLER_29_54
*1829 FILLER_29_57
*1830 FILLER_29_68
*1831 FILLER_29_77
*1832 FILLER_29_86
*1833 FILLER_29_9
*1834 FILLER_29_95
*1835 FILLER_2_108
*1836 FILLER_2_11
*1837 FILLER_2_128
*1838 FILLER_2_135
*1839 FILLER_2_139
*1840 FILLER_2_141
*1841 FILLER_2_147
*1842 FILLER_2_164
*1843 FILLER_2_177
*1844 FILLER_2_186
*1845 FILLER_2_193
*1846 FILLER_2_197
*1847 FILLER_2_207
*1848 FILLER_2_214
*1849 FILLER_2_226
*1850 FILLER_2_238
*1851 FILLER_2_250
*1852 FILLER_2_253
*1853 FILLER_2_26
*1854 FILLER_2_265
*1855 FILLER_2_277
*1856 FILLER_2_289
*1857 FILLER_2_29
*1858 FILLER_2_297
*1859 FILLER_2_3
*1860 FILLER_2_53
*1861 FILLER_2_59
*1862 FILLER_2_69
*1863 FILLER_2_82
*1864 FILLER_2_85
*1865 FILLER_30_100
*1866 FILLER_30_112
*1867 FILLER_30_118
*1868 FILLER_30_125
*1869 FILLER_30_131
*1870 FILLER_30_138
*1871 FILLER_30_141
*1872 FILLER_30_147
*1873 FILLER_30_155
*1874 FILLER_30_167
*1875 FILLER_30_178
*1876 FILLER_30_187
*1877 FILLER_30_19
*1878 FILLER_30_195
*1879 FILLER_30_197
*1880 FILLER_30_212
*1881 FILLER_30_223
*1882 FILLER_30_234
*1883 FILLER_30_242
*1884 FILLER_30_248
*1885 FILLER_30_253
*1886 FILLER_30_26
*1887 FILLER_30_268
*1888 FILLER_30_280
*1889 FILLER_30_29