*SPEF "ieee 1481-1999"
*DESIGN "moonbase_pdp8"
*DATE "11:11:11 Fri 11 11, 1111"
*VENDOR "OpenRCX"
*PROGRAM "Parallel Extraction"
*VERSION "1.0"
*DESIGN_FLOW "NAME_SCOPE LOCAL" "PIN_CAP NONE"
*DIVIDER /
*DELIMITER :
*BUS_DELIMITER []
*T_UNIT 1 NS
*C_UNIT 1 PF
*R_UNIT 1 OHM
*L_UNIT 1 HENRY

*NAME_MAP
*1 io_in[0]
*2 io_in[1]
*3 io_in[2]
*4 io_in[3]
*5 io_in[4]
*6 io_in[5]
*7 io_in[6]
*8 io_in[7]
*9 io_out[0]
*10 io_out[1]
*11 io_out[2]
*12 io_out[3]
*13 io_out[4]
*14 io_out[5]
*15 io_out[6]
*16 io_out[7]
*19 _0000_
*20 _0001_
*21 _0002_
*22 _0003_
*23 _0004_
*24 _0005_
*25 _0006_
*26 _0007_
*27 _0008_
*28 _0009_
*29 _0010_
*30 _0011_
*31 _0012_
*32 _0013_
*33 _0014_
*34 _0015_
*35 _0016_
*36 _0017_
*37 _0018_
*38 _0019_
*39 _0020_
*40 _0021_
*41 _0022_
*42 _0023_
*43 _0024_
*44 _0025_
*45 _0026_
*46 _0027_
*47 _0028_
*48 _0029_
*49 _0030_
*50 _0031_
*51 _0032_
*52 _0033_
*53 _0034_
*54 _0035_
*55 _0036_
*56 _0037_
*57 _0038_
*58 _0039_
*59 _0040_
*60 _0041_
*61 _0042_
*62 _0043_
*63 _0044_
*64 _0045_
*65 _0046_
*66 _0047_
*67 _0048_
*68 _0049_
*69 _0050_
*70 _0051_
*71 _0052_
*72 _0053_
*73 _0054_
*74 _0055_
*75 _0056_
*76 _0057_
*77 _0058_
*78 _0059_
*79 _0060_
*80 _0061_
*81 _0062_
*82 _0063_
*83 _0064_
*84 _0065_
*85 _0066_
*86 _0067_
*87 _0068_
*88 _0069_
*89 _0070_
*90 _0071_
*91 _0072_
*92 _0073_
*93 _0074_
*94 _0075_
*95 _0076_
*96 _0077_
*97 _0078_
*98 _0079_
*99 _0080_
*100 _0081_
*101 _0082_
*102 _0083_
*103 _0084_
*104 _0085_
*105 _0086_
*106 _0087_
*107 _0088_
*108 _0089_
*109 _0090_
*110 _0091_
*111 _0092_
*112 _0093_
*113 _0094_
*114 _0095_
*115 _0096_
*116 _0097_
*117 _0098_
*118 _0099_
*119 _0100_
*120 _0101_
*121 _0102_
*122 _0103_
*123 _0104_
*124 _0105_
*125 _0106_
*126 _0107_
*127 _0108_
*128 _0109_
*129 _0110_
*130 _0111_
*131 _0112_
*132 _0113_
*133 _0114_
*134 _0115_
*135 _0116_
*136 _0117_
*137 _0118_
*138 _0119_
*139 _0120_
*140 _0121_
*141 _0122_
*142 _0123_
*143 _0124_
*144 _0125_
*145 _0126_
*146 _0127_
*147 _0128_
*148 _0129_
*149 _0130_
*150 _0131_
*151 _0132_
*152 _0133_
*153 _0134_
*154 _0135_
*155 _0136_
*156 _0137_
*157 _0138_
*158 _0139_
*159 _0140_
*160 _0141_
*161 _0142_
*162 _0143_
*163 _0144_
*164 _0145_
*165 _0146_
*166 _0147_
*167 _0148_
*168 _0149_
*169 _0150_
*170 _0151_
*171 _0152_
*172 _0153_
*173 _0154_
*174 _0155_
*175 _0156_
*176 _0157_
*177 _0158_
*178 _0159_
*179 _0160_
*180 _0161_
*181 _0162_
*182 _0163_
*183 _0164_
*184 _0165_
*185 _0166_
*186 _0167_
*187 _0168_
*188 _0169_
*189 _0170_
*190 _0171_
*191 _0172_
*192 _0173_
*193 _0174_
*194 _0175_
*195 _0176_
*196 _0177_
*197 _0178_
*198 _0179_
*199 _0180_
*200 _0181_
*201 _0182_
*202 _0183_
*203 _0184_
*204 _0185_
*205 _0186_
*206 _0187_
*207 _0188_
*208 _0189_
*209 _0190_
*210 _0191_
*211 _0192_
*212 _0193_
*213 _0194_
*214 _0195_
*215 _0196_
*216 _0197_
*217 _0198_
*218 _0199_
*219 _0200_
*220 _0201_
*221 _0202_
*222 _0203_
*223 _0204_
*224 _0205_
*225 _0206_
*226 _0207_
*227 _0208_
*228 _0209_
*229 _0210_
*230 _0211_
*231 _0212_
*232 _0213_
*233 _0214_
*234 _0215_
*235 _0216_
*236 _0217_
*237 _0218_
*238 _0219_
*239 _0220_
*240 _0221_
*241 _0222_
*242 _0223_
*243 _0224_
*244 _0225_
*245 _0226_
*246 _0227_
*247 _0228_
*248 _0229_
*249 _0230_
*250 _0231_
*251 _0232_
*252 _0233_
*253 _0234_
*254 _0235_
*255 _0236_
*256 _0237_
*257 _0238_
*258 _0239_
*259 _0240_
*260 _0241_
*261 _0242_
*262 _0243_
*263 _0244_
*264 _0245_
*265 _0246_
*266 _0247_
*267 _0248_
*268 _0249_
*269 _0250_
*270 _0251_
*271 _0252_
*272 _0253_
*273 _0254_
*274 _0255_
*275 _0256_
*276 _0257_
*277 _0258_
*278 _0259_
*279 _0260_
*280 _0261_
*281 _0262_
*282 _0263_
*283 _0264_
*284 _0265_
*285 _0266_
*286 _0267_
*287 _0268_
*288 _0269_
*289 _0270_
*290 _0271_
*291 _0272_
*292 _0273_
*293 _0274_
*294 _0275_
*295 _0276_
*296 _0277_
*297 _0278_
*298 _0279_
*299 _0280_
*300 _0281_
*301 _0282_
*302 _0283_
*303 _0284_
*304 _0285_
*305 _0286_
*306 _0287_
*307 _0288_
*308 _0289_
*309 _0290_
*310 _0291_
*311 _0292_
*312 _0293_
*313 _0294_
*314 _0295_
*315 _0296_
*316 _0297_
*317 _0298_
*318 _0299_
*319 _0300_
*320 _0301_
*321 _0302_
*322 _0303_
*323 _0304_
*324 _0305_
*325 _0306_
*326 _0307_
*327 _0308_
*328 _0309_
*329 _0310_
*330 _0311_
*331 _0312_
*332 _0313_
*333 _0314_
*334 _0315_
*335 _0316_
*336 _0317_
*337 _0318_
*338 _0319_
*339 _0320_
*340 _0321_
*341 _0322_
*342 _0323_
*343 _0324_
*344 _0325_
*345 _0326_
*346 _0327_
*347 _0328_
*348 _0329_
*349 _0330_
*350 _0331_
*351 _0332_
*352 _0333_
*353 _0334_
*354 _0335_
*355 _0336_
*356 _0337_
*357 _0338_
*358 _0339_
*359 _0340_
*360 _0341_
*361 _0342_
*362 _0343_
*363 _0344_
*364 _0345_
*365 _0346_
*366 _0347_
*367 _0348_
*368 _0349_
*369 _0350_
*370 _0351_
*371 _0352_
*372 _0353_
*373 _0354_
*374 _0355_
*375 _0356_
*376 _0357_
*377 _0358_
*378 _0359_
*379 _0360_
*380 _0361_
*381 _0362_
*382 _0363_
*383 _0364_
*384 _0365_
*385 _0366_
*386 _0367_
*387 _0368_
*388 _0369_
*389 _0370_
*390 _0371_
*391 _0372_
*392 _0373_
*393 _0374_
*394 _0375_
*395 _0376_
*396 _0377_
*397 _0378_
*398 _0379_
*399 _0380_
*400 _0381_
*401 _0382_
*402 _0383_
*403 _0384_
*404 _0385_
*405 _0386_
*406 _0387_
*407 _0388_
*408 _0389_
*409 _0390_
*410 _0391_
*411 _0392_
*412 _0393_
*413 _0394_
*414 _0395_
*415 _0396_
*416 _0397_
*417 _0398_
*418 _0399_
*419 _0400_
*420 _0401_
*421 _0402_
*422 _0403_
*423 _0404_
*424 _0405_
*425 _0406_
*426 _0407_
*427 _0408_
*428 _0409_
*429 _0410_
*430 _0411_
*431 _0412_
*432 _0413_
*433 _0414_
*434 _0415_
*435 _0416_
*436 _0417_
*437 _0418_
*438 _0419_
*439 _0420_
*440 _0421_
*441 _0422_
*442 _0423_
*443 _0424_
*444 _0425_
*445 _0426_
*446 _0427_
*447 _0428_
*448 _0429_
*449 _0430_
*450 _0431_
*451 _0432_
*452 _0433_
*453 _0434_
*454 _0435_
*455 _0436_
*456 _0437_
*457 _0438_
*458 _0439_
*459 _0440_
*460 _0441_
*461 _0442_
*462 _0443_
*463 _0444_
*464 _0445_
*465 _0446_
*466 _0447_
*467 _0448_
*468 _0449_
*469 _0450_
*470 _0451_
*471 _0452_
*472 _0453_
*473 _0454_
*474 _0455_
*475 _0456_
*476 _0457_
*477 _0458_
*478 _0459_
*479 _0460_
*480 _0461_
*481 _0462_
*482 _0463_
*483 _0464_
*484 _0465_
*485 _0466_
*486 _0467_
*487 _0468_
*488 _0469_
*489 _0470_
*490 _0471_
*491 _0472_
*492 _0473_
*493 _0474_
*494 _0475_
*495 _0476_
*496 _0477_
*497 _0478_
*498 _0479_
*499 _0480_
*500 _0481_
*501 _0482_
*502 _0483_
*503 _0484_
*504 _0485_
*505 _0486_
*506 _0487_
*507 _0488_
*508 _0489_
*509 _0490_
*510 _0491_
*511 _0492_
*512 _0493_
*513 _0494_
*514 _0495_
*515 _0496_
*516 _0497_
*517 _0498_
*518 _0499_
*519 _0500_
*520 _0501_
*521 _0502_
*522 _0503_
*523 _0504_
*524 _0505_
*525 _0506_
*526 _0507_
*527 _0508_
*528 _0509_
*529 _0510_
*530 _0511_
*531 _0512_
*532 _0513_
*533 _0514_
*534 _0515_
*535 _0516_
*536 _0517_
*537 _0518_
*538 _0519_
*539 _0520_
*540 _0521_
*541 _0522_
*542 _0523_
*543 _0524_
*544 _0525_
*545 _0526_
*546 _0527_
*547 _0528_
*548 _0529_
*549 _0530_
*550 _0531_
*551 _0532_
*552 _0533_
*553 _0534_
*554 _0535_
*555 _0536_
*556 _0537_
*557 _0538_
*558 _0539_
*559 _0540_
*560 _0541_
*561 _0542_
*562 _0543_
*563 _0544_
*564 _0545_
*565 _0546_
*566 _0547_
*567 _0548_
*568 _0549_
*569 _0550_
*570 _0551_
*571 _0552_
*572 _0553_
*573 _0554_
*574 _0555_
*575 _0556_
*576 _0557_
*577 _0558_
*578 _0559_
*579 _0560_
*580 _0561_
*581 _0562_
*582 _0563_
*583 _0564_
*584 _0565_
*585 _0566_
*586 _0567_
*587 _0568_
*588 _0569_
*589 _0570_
*590 _0571_
*591 _0572_
*592 _0573_
*593 _0574_
*594 _0575_
*595 _0576_
*596 _0577_
*597 _0578_
*598 _0579_
*599 _0580_
*600 _0581_
*601 _0582_
*602 _0583_
*603 _0584_
*604 _0585_
*605 _0586_
*606 _0587_
*607 _0588_
*608 _0589_
*609 _0590_
*610 _0591_
*611 _0592_
*612 _0593_
*613 _0594_
*614 _0595_
*615 _0596_
*616 _0597_
*617 _0598_
*618 _0599_
*619 _0600_
*620 _0601_
*621 _0602_
*622 _0603_
*623 _0604_
*624 _0605_
*625 _0606_
*626 _0607_
*627 _0608_
*628 _0609_
*629 _0610_
*630 _0611_
*631 _0612_
*632 _0613_
*633 _0614_
*634 _0615_
*635 _0616_
*636 _0617_
*637 _0618_
*638 _0619_
*639 _0620_
*640 _0621_
*641 _0622_
*642 _0623_
*643 _0624_
*644 _0625_
*645 _0626_
*646 _0627_
*647 _0628_
*648 _0629_
*649 _0630_
*650 _0631_
*651 _0632_
*652 _0633_
*653 _0634_
*654 _0635_
*655 _0636_
*656 _0637_
*657 _0638_
*658 _0639_
*659 _0640_
*660 _0641_
*661 _0642_
*662 _0643_
*663 _0644_
*664 _0645_
*665 _0646_
*666 _0647_
*667 _0648_
*668 _0649_
*669 _0650_
*670 _0651_
*671 _0652_
*672 _0653_
*673 _0654_
*674 _0655_
*675 _0656_
*676 _0657_
*677 _0658_
*678 _0659_
*679 _0660_
*680 _0661_
*681 _0662_
*682 _0663_
*683 _0664_
*684 _0665_
*685 _0666_
*686 _0667_
*687 _0668_
*688 _0669_
*689 _0670_
*690 _0671_
*691 _0672_
*692 _0673_
*693 _0674_
*694 _0675_
*695 _0676_
*696 _0677_
*697 _0678_
*698 _0679_
*699 _0680_
*700 _0681_
*701 _0682_
*702 _0683_
*703 _0684_
*704 _0685_
*705 _0686_
*706 _0687_
*707 _0688_
*708 _0689_
*709 _0690_
*710 _0691_
*711 _0692_
*712 _0693_
*713 _0694_
*714 _0695_
*715 _0696_
*716 _0697_
*717 _0698_
*718 _0699_
*719 _0700_
*720 _0701_
*721 _0702_
*722 _0703_
*723 _0704_
*724 _0705_
*725 _0706_
*726 _0707_
*727 _0708_
*728 _0709_
*729 _0710_
*730 _0711_
*731 _0712_
*732 _0713_
*733 _0714_
*734 _0715_
*735 _0716_
*736 _0717_
*737 _0718_
*738 _0719_
*739 _0720_
*740 _0721_
*741 _0722_
*742 _0723_
*743 _0724_
*744 _0725_
*745 _0726_
*746 _0727_
*747 _0728_
*748 _0729_
*749 _0730_
*750 _0731_
*751 _0732_
*752 _0733_
*753 _0734_
*754 _0735_
*755 _0736_
*756 _0737_
*757 _0738_
*758 _0739_
*759 _0740_
*760 _0741_
*761 _0742_
*762 _0743_
*763 _0744_
*764 _0745_
*765 _0746_
*766 _0747_
*767 _0748_
*768 _0749_
*769 _0750_
*770 _0751_
*771 _0752_
*772 _0753_
*773 _0754_
*774 _0755_
*775 _0756_
*776 _0757_
*777 _0758_
*778 _0759_
*779 _0760_
*780 _0761_
*781 _0762_
*782 _0763_
*783 _0764_
*784 _0765_
*785 _0766_
*786 _0767_
*787 _0768_
*788 _0769_
*789 _0770_
*790 _0771_
*791 _0772_
*792 _0773_
*793 _0774_
*794 _0775_
*795 _0776_
*796 _0777_
*797 _0778_
*798 _0779_
*799 _0780_
*800 _0781_
*801 _0782_
*802 _0783_
*803 _0784_
*804 _0785_
*805 _0786_
*806 _0787_
*807 _0788_
*808 _0789_
*809 _0790_
*810 _0791_
*811 _0792_
*812 _0793_
*813 _0794_
*814 _0795_
*815 _0796_
*816 _0797_
*817 _0798_
*818 _0799_
*819 _0800_
*820 _0801_
*821 _0802_
*822 _0803_
*823 _0804_
*824 _0805_
*825 _0806_
*826 _0807_
*827 _0808_
*828 _0809_
*829 _0810_
*830 _0811_
*831 _0812_
*832 _0813_
*833 _0814_
*834 _0815_
*835 _0816_
*836 _0817_
*837 _0818_
*838 _0819_
*839 _0820_
*840 _0821_
*841 _0822_
*842 _0823_
*843 _0824_
*844 _0825_
*845 _0826_
*846 _0827_
*847 _0828_
*848 _0829_
*849 _0830_
*850 _0831_
*851 _0832_
*852 _0833_
*853 _0834_
*854 _0835_
*855 _0836_
*856 _0837_
*857 _0838_
*858 _0839_
*859 _0840_
*860 _0841_
*861 _0842_
*862 _0843_
*863 _0844_
*864 _0845_
*865 _0846_
*866 _0847_
*867 _0848_
*868 _0849_
*869 _0850_
*870 _0851_
*871 _0852_
*872 _0853_
*873 _0854_
*874 _0855_
*875 _0856_
*876 _0857_
*877 _0858_
*878 _0859_
*879 _0860_
*880 _0861_
*881 _0862_
*882 _0863_
*883 _0864_
*884 _0865_
*885 _0866_
*886 _0867_
*887 _0868_
*888 _0869_
*889 _0870_
*890 _0871_
*891 _0872_
*892 _0873_
*893 _0874_
*894 _0875_
*895 _0876_
*896 _0877_
*897 _0878_
*898 _0879_
*899 _0880_
*900 _0881_
*901 _0882_
*902 _0883_
*903 _0884_
*904 _0885_
*905 _0886_
*906 _0887_
*907 _0888_
*908 _0889_
*909 _0890_
*910 _0891_
*911 _0892_
*912 _0893_
*913 _0894_
*914 _0895_
*915 _0896_
*916 _0897_
*917 _0898_
*918 _0899_
*919 _0900_
*920 _0901_
*921 _0902_
*922 _0903_
*923 _0904_
*924 _0905_
*925 _0906_
*926 _0907_
*927 _0908_
*928 _0909_
*929 _0910_
*930 _0911_
*931 _0912_
*932 _0913_
*933 _0914_
*934 _0915_
*935 _0916_
*936 _0917_
*937 _0918_
*938 _0919_
*939 _0920_
*940 _0921_
*941 _0922_
*942 _0923_
*943 _0924_
*944 _0925_
*945 _0926_
*946 _0927_
*947 _0928_
*948 _0929_
*949 _0930_
*950 _0931_
*951 _0932_
*952 _0933_
*953 _0934_
*954 _0935_
*955 _0936_
*956 _0937_
*957 _0938_
*958 _0939_
*959 _0940_
*960 _0941_
*961 _0942_
*962 _0943_
*963 _0944_
*964 _0945_
*965 _0946_
*966 _0947_
*967 _0948_
*968 _0949_
*969 _0950_
*970 _0951_
*971 _0952_
*972 _0953_
*973 _0954_
*974 _0955_
*975 _0956_
*976 _0957_
*977 _0958_
*978 _0959_
*979 _0960_
*980 _0961_
*981 _0962_
*982 _0963_
*983 _0964_
*984 _0965_
*985 _0966_
*986 _0967_
*987 _0968_
*988 _0969_
*989 _0970_
*990 _0971_
*991 _0972_
*992 _0973_
*993 _0974_
*994 _0975_
*995 _0976_
*996 _0977_
*997 _0978_
*998 _0979_
*999 _0980_
*1000 _0981_
*1001 _0982_
*1002 _0983_
*1003 _0984_
*1004 _0985_
*1005 _0986_
*1006 _0987_
*1007 _0988_
*1008 _0989_
*1009 _0990_
*1010 _0991_
*1011 _0992_
*1012 _0993_
*1013 _0994_
*1014 _0995_
*1015 _0996_
*1016 _0997_
*1017 _0998_
*1018 _0999_
*1019 _1000_
*1020 _1001_
*1021 _1002_
*1022 _1003_
*1023 _1004_
*1024 _1005_
*1025 _1006_
*1026 _1007_
*1027 _1008_
*1028 _1009_
*1029 _1010_
*1030 _1011_
*1031 _1012_
*1032 _1013_
*1033 _1014_
*1034 _1015_
*1035 _1016_
*1036 _1017_
*1037 _1018_
*1038 _1019_
*1039 _1020_
*1040 _1021_
*1041 _1022_
*1042 _1023_
*1043 _1024_
*1044 _1025_
*1045 _1026_
*1046 _1027_
*1047 _1028_
*1048 _1029_
*1049 _1030_
*1050 _1031_
*1051 _1032_
*1052 _1033_
*1053 _1034_
*1054 _1035_
*1055 _1036_
*1056 _1037_
*1057 _1038_
*1058 _1039_
*1059 _1040_
*1060 _1041_
*1061 _1042_
*1062 _1043_
*1063 _1044_
*1064 _1045_
*1065 _1046_
*1066 _1047_
*1067 _1048_
*1068 _1049_
*1069 _1050_
*1070 _1051_
*1071 _1052_
*1072 _1053_
*1073 _1054_
*1074 _1055_
*1075 _1056_
*1076 _1057_
*1077 _1058_
*1078 _1059_
*1079 _1060_
*1080 _1061_
*1081 _1062_
*1082 _1063_
*1083 _1064_
*1084 _1065_
*1085 _1066_
*1086 _1067_
*1087 _1068_
*1088 _1069_
*1089 _1070_
*1090 _1071_
*1091 _1072_
*1092 _1073_
*1093 _1074_
*1094 _1075_
*1095 _1076_
*1096 _1077_
*1097 _1078_
*1098 _1079_
*1099 _1080_
*1100 _1081_
*1101 _1082_
*1102 _1083_
*1103 _1084_
*1104 bus_index\[0\]
*1105 bus_index\[1\]
*1106 clknet_0_io_in[0]
*1107 clknet_3_0__leaf_io_in[0]
*1108 clknet_3_1__leaf_io_in[0]
*1109 clknet_3_2__leaf_io_in[0]
*1110 clknet_3_3__leaf_io_in[0]
*1111 clknet_3_4__leaf_io_in[0]
*1112 clknet_3_5__leaf_io_in[0]
*1113 clknet_3_6__leaf_io_in[0]
*1114 clknet_3_7__leaf_io_in[0]
*1115 net1
*1116 net2
*1117 net3
*1118 net4
*1119 net5
*1120 r_a\[0\]
*1121 r_a\[10\]
*1122 r_a\[11\]
*1123 r_a\[1\]
*1124 r_a\[2\]
*1125 r_a\[3\]
*1126 r_a\[4\]
*1127 r_a\[5\]
*1128 r_a\[6\]
*1129 r_a\[7\]
*1130 r_a\[8\]
*1131 r_a\[9\]
*1132 r_data\[0\]
*1133 r_data\[10\]
*1134 r_data\[11\]
*1135 r_data\[1\]
*1136 r_data\[2\]
*1137 r_data\[3\]
*1138 r_data\[4\]
*1139 r_data\[5\]
*1140 r_data\[6\]
*1141 r_data\[7\]
*1142 r_data\[8\]
*1143 r_data\[9\]
*1144 r_data_addr\[0\]
*1145 r_data_addr\[10\]
*1146 r_data_addr\[11\]
*1147 r_data_addr\[1\]
*1148 r_data_addr\[2\]
*1149 r_data_addr\[3\]
*1150 r_data_addr\[4\]
*1151 r_data_addr\[5\]
*1152 r_data_addr\[6\]
*1153 r_data_addr\[7\]
*1154 r_data_addr\[8\]
*1155 r_data_addr\[9\]
*1156 r_ins\[0\]
*1157 r_ins\[10\]
*1158 r_ins\[11\]
*1159 r_ins\[1\]
*1160 r_ins\[2\]
*1161 r_ins\[3\]
*1162 r_ins\[4\]
*1163 r_ins\[5\]
*1164 r_ins\[6\]
*1165 r_ins\[7\]
*1166 r_ins\[8\]
*1167 r_ins\[9\]
*1168 r_int_enable
*1169 r_int_pending
*1170 r_io_ready
*1171 r_io_skip
*1172 r_l
*1173 r_mq\[0\]
*1174 r_mq\[10\]
*1175 r_mq\[11\]
*1176 r_mq\[1\]
*1177 r_mq\[2\]
*1178 r_mq\[3\]
*1179 r_mq\[4\]
*1180 r_mq\[5\]
*1181 r_mq\[6\]
*1182 r_mq\[7\]
*1183 r_mq\[8\]
*1184 r_mq\[9\]
*1185 r_pc\[0\]
*1186 r_pc\[10\]
*1187 r_pc\[11\]
*1188 r_pc\[1\]
*1189 r_pc\[2\]
*1190 r_pc\[3\]
*1191 r_pc\[4\]
*1192 r_pc\[5\]
*1193 r_pc\[6\]
*1194 r_pc\[7\]
*1195 r_pc\[8\]
*1196 r_pc\[9\]
*1197 r_phase\[2\]
*1198 r_super\[0\]
*1199 r_super\[1\]
*1200 r_super\[2\]
*1201 r_super\[3\]
*1202 r_super\[4\]
*1203 r_super\[5\]
*1204 strobe_out
*1205 ANTENNA_1
*1206 ANTENNA_10
*1207 ANTENNA_2
*1208 ANTENNA_3
*1209 ANTENNA_4
*1210 ANTENNA_5
*1211 ANTENNA_6
*1212 ANTENNA_7
*1213 ANTENNA_8
*1214 ANTENNA_9
*1215 FILLER_0_103
*1216 FILLER_0_110
*1217 FILLER_0_113
*1218 FILLER_0_120
*1219 FILLER_0_131
*1220 FILLER_0_138
*1221 FILLER_0_141
*1222 FILLER_0_147
*1223 FILLER_0_155
*1224 FILLER_0_160
*1225 FILLER_0_169
*1226 FILLER_0_174
*1227 FILLER_0_181
*1228 FILLER_0_185
*1229 FILLER_0_193
*1230 FILLER_0_197
*1231 FILLER_0_205
*1232 FILLER_0_21
*1233 FILLER_0_213
*1234 FILLER_0_221
*1235 FILLER_0_225
*1236 FILLER_0_240
*1237 FILLER_0_247
*1238 FILLER_0_251
*1239 FILLER_0_253
*1240 FILLER_0_258
*1241 FILLER_0_265
*1242 FILLER_0_27
*1243 FILLER_0_272
*1244 FILLER_0_281
*1245 FILLER_0_29
*1246 FILLER_0_293
*1247 FILLER_0_3
*1248 FILLER_0_38
*1249 FILLER_0_47
*1250 FILLER_0_54
*1251 FILLER_0_57
*1252 FILLER_0_62
*1253 FILLER_0_70
*1254 FILLER_0_78
*1255 FILLER_0_82
*1256 FILLER_0_85
*1257 FILLER_0_96
*1258 FILLER_10_105
*1259 FILLER_10_111
*1260 FILLER_10_119
*1261 FILLER_10_126
*1262 FILLER_10_13
*1263 FILLER_10_136
*1264 FILLER_10_141
*1265 FILLER_10_147
*1266 FILLER_10_164
*1267 FILLER_10_172
*1268 FILLER_10_189
*1269 FILLER_10_195
*1270 FILLER_10_197
*1271 FILLER_10_215
*1272 FILLER_10_235
*1273 FILLER_10_248
*1274 FILLER_10_253
*1275 FILLER_10_26
*1276 FILLER_10_272
*1277 FILLER_10_29
*1278 FILLER_10_291
*1279 FILLER_10_3
*1280 FILLER_10_40
*1281 FILLER_10_44
*1282 FILLER_10_55
*1283 FILLER_10_65
*1284 FILLER_10_69
*1285 FILLER_10_74
*1286 FILLER_10_82
*1287 FILLER_10_85
*1288 FILLER_10_96
*1289 FILLER_11_102
*1290 FILLER_11_110
*1291 FILLER_11_113
*1292 FILLER_11_125
*1293 FILLER_11_149
*1294 FILLER_11_153
*1295 FILLER_11_162
*1296 FILLER_11_169
*1297 FILLER_11_180
*1298 FILLER_11_188
*1299 FILLER_11_197
*1300 FILLER_11_203
*1301 FILLER_11_210
*1302 FILLER_11_218
*1303 FILLER_11_22
*1304 FILLER_11_225
*1305 FILLER_11_238
*1306 FILLER_11_246
*1307 FILLER_11_253
*1308 FILLER_11_257
*1309 FILLER_11_263
*1310 FILLER_11_272
*1311 FILLER_11_281
*1312 FILLER_11_288
*1313 FILLER_11_296
*1314 FILLER_11_3
*1315 FILLER_11_30
*1316 FILLER_11_41
*1317 FILLER_11_51
*1318 FILLER_11_55
*1319 FILLER_11_57
*1320 FILLER_11_69
*1321 FILLER_11_93
*1322 FILLER_11_97
*1323 FILLER_12_100
*1324 FILLER_12_106
*1325 FILLER_12_113
*1326 FILLER_12_117
*1327 FILLER_12_122
*1328 FILLER_12_13
*1329 FILLER_12_130
*1330 FILLER_12_136
*1331 FILLER_12_141
*1332 FILLER_12_151
*1333 FILLER_12_159
*1334 FILLER_12_168
*1335 FILLER_12_180
*1336 FILLER_12_194
*1337 FILLER_12_197
*1338 FILLER_12_205
*1339 FILLER_12_212
*1340 FILLER_12_219
*1341 FILLER_12_227
*1342 FILLER_12_232
*1343 FILLER_12_247
*1344 FILLER_12_251
*1345 FILLER_12_253
*1346 FILLER_12_26
*1347 FILLER_12_268
*1348 FILLER_12_279
*1349 FILLER_12_285
*1350 FILLER_12_29
*1351 FILLER_12_292
*1352 FILLER_12_298
*1353 FILLER_12_3
*1354 FILLER_12_46
*1355 FILLER_12_59
*1356 FILLER_12_72
*1357 FILLER_12_78
*1358 FILLER_12_82
*1359 FILLER_12_85
*1360 FILLER_12_9
*1361 FILLER_12_96
*1362 FILLER_13_107
*1363 FILLER_13_11
*1364 FILLER_13_111
*1365 FILLER_13_113
*1366 FILLER_13_123
*1367 FILLER_13_131
*1368 FILLER_13_143
*1369 FILLER_13_149
*1370 FILLER_13_158
*1371 FILLER_13_165
*1372 FILLER_13_169
*1373 FILLER_13_187
*1374 FILLER_13_191
*1375 FILLER_13_201
*1376 FILLER_13_205
*1377 FILLER_13_215
*1378 FILLER_13_222
*1379 FILLER_13_225
*1380 FILLER_13_236
*1381 FILLER_13_24
*1382 FILLER_13_244
*1383 FILLER_13_251
*1384 FILLER_13_255
*1385 FILLER_13_262
*1386 FILLER_13_270
*1387 FILLER_13_278
*1388 FILLER_13_281
*1389 FILLER_13_285
*1390 FILLER_13_293
*1391 FILLER_13_3
*1392 FILLER_13_41
*1393 FILLER_13_54
*1394 FILLER_13_57
*1395 FILLER_13_7
*1396 FILLER_13_72
*1397 FILLER_13_83
*1398 FILLER_13_94
*1399 FILLER_13_98
*1400 FILLER_14_100
*1401 FILLER_14_110
*1402 FILLER_14_123
*1403 FILLER_14_132
*1404 FILLER_14_141
*1405 FILLER_14_152
*1406 FILLER_14_172
*1407 FILLER_14_184
*1408 FILLER_14_188
*1409 FILLER_14_194
*1410 FILLER_14_197
*1411 FILLER_14_201
*1412 FILLER_14_218
*1413 FILLER_14_22
*1414 FILLER_14_238
*1415 FILLER_14_250
*1416 FILLER_14_253
*1417 FILLER_14_265
*1418 FILLER_14_277
*1419 FILLER_14_283
*1420 FILLER_14_29
*1421 FILLER_14_297
*1422 FILLER_14_3
*1423 FILLER_14_47
*1424 FILLER_14_51
*1425 FILLER_14_62
*1426 FILLER_14_69
*1427 FILLER_14_80
*1428 FILLER_14_85
*1429 FILLER_14_94
*1430 FILLER_15_103
*1431 FILLER_15_110
*1432 FILLER_15_113
*1433 FILLER_15_122
*1434 FILLER_15_135
*1435 FILLER_15_142
*1436 FILLER_15_153
*1437 FILLER_15_159
*1438 FILLER_15_166
*1439 FILLER_15_169
*1440 FILLER_15_187
*1441 FILLER_15_19
*1442 FILLER_15_201
*1443 FILLER_15_207
*1444 FILLER_15_214
*1445 FILLER_15_222
*1446 FILLER_15_225
*1447 FILLER_15_230
*1448 FILLER_15_234
*1449 FILLER_15_242
*1450 FILLER_15_263
*1451 FILLER_15_275
*1452 FILLER_15_279
*1453 FILLER_15_281
*1454 FILLER_15_287
*1455 FILLER_15_293
*1456 FILLER_15_3
*1457 FILLER_15_32
*1458 FILLER_15_54
*1459 FILLER_15_57
*1460 FILLER_15_65
*1461 FILLER_15_73
*1462 FILLER_15_88
*1463 FILLER_15_9
*1464 FILLER_15_95
*1465 FILLER_15_99
*1466 FILLER_16_103
*1467 FILLER_16_116
*1468 FILLER_16_122
*1469 FILLER_16_126
*1470 FILLER_16_136
*1471 FILLER_16_141
*1472 FILLER_16_151
*1473 FILLER_16_157
*1474 FILLER_16_178
*1475 FILLER_16_190
*1476 FILLER_16_197
*1477 FILLER_16_205
*1478 FILLER_16_21
*1479 FILLER_16_214
*1480 FILLER_16_221
*1481 FILLER_16_233
*1482 FILLER_16_243
*1483 FILLER_16_251
*1484 FILLER_16_253
*1485 FILLER_16_264
*1486 FILLER_16_27
*1487 FILLER_16_276
*1488 FILLER_16_289
*1489 FILLER_16_29
*1490 FILLER_16_297
*1491 FILLER_16_3
*1492 FILLER_16_46
*1493 FILLER_16_54
*1494 FILLER_16_69
*1495 FILLER_16_75
*1496 FILLER_16_82
*1497 FILLER_16_85
*1498 FILLER_16_94
*1499 FILLER_17_104
*1500 FILLER_17_113
*1501 FILLER_17_120
*1502 FILLER_17_129
*1503 FILLER_17_137
*1504 FILLER_17_141
*1505 FILLER_17_15
*1506 FILLER_17_150
*1507 FILLER_17_162
*1508 FILLER_17_169
*1509 FILLER_17_174
*1510 FILLER_17_194
*1511 FILLER_17_202
*1512 FILLER_17_212
*1513 FILLER_17_222
*1514 FILLER_17_225
*1515 FILLER_17_235
*1516 FILLER_17_241
*1517 FILLER_17_246
*1518 FILLER_17_258
*1519 FILLER_17_262
*1520 FILLER_17_267
*1521 FILLER_17_278
*1522 FILLER_17_28
*1523 FILLER_17_281
*1524 FILLER_17_293
*1525 FILLER_17_3
*1526 FILLER_17_39
*1527 FILLER_17_50
*1528 FILLER_17_57
*1529 FILLER_17_69
*1530 FILLER_17_93
*1531 FILLER_18_102
*1532 FILLER_18_110
*1533 FILLER_18_115
*1534 FILLER_18_126
*1535 FILLER_18_138
*1536 FILLER_18_141
*1537 FILLER_18_145
*1538 FILLER_18_15
*1539 FILLER_18_150
*1540 FILLER_18_162
*1541 FILLER_18_178
*1542 FILLER_18_185
*1543 FILLER_18_194
*1544 FILLER_18_197
*1545 FILLER_18_215
*1546 FILLER_18_225
*1547 FILLER_18_233
*1548 FILLER_18_249
*1549 FILLER_18_253
*1550 FILLER_18_258
*1551 FILLER_18_26
*1552 FILLER_18_262
*1553 FILLER_18_267
*1554 FILLER_18_280
*1555 FILLER_18_29
*1556 FILLER_18_293
*1557 FILLER_18_3
*1558 FILLER_18_35
*1559 FILLER_18_48
*1560 FILLER_18_52
*1561 FILLER_18_61
*1562 FILLER_18_73
*1563 FILLER_18_82
*1564 FILLER_18_85
*1565 FILLER_18_9
*1566 FILLER_18_91
*1567 FILLER_19_104
*1568 FILLER_19_113
*1569 FILLER_19_119
*1570 FILLER_19_126
*1571 FILLER_19_135
*1572 FILLER_19_143
*1573 FILLER_19_150
*1574 FILLER_19_161
*1575 FILLER_19_167
*1576 FILLER_19_169
*1577 FILLER_19_187
*1578 FILLER_19_199
*1579 FILLER_19_211
*1580 FILLER_19_219
*1581 FILLER_19_223
*1582 FILLER_19_225
*1583 FILLER_19_240
*1584 FILLER_19_251
*1585 FILLER_19_258
*1586 FILLER_19_26
*1587 FILLER_19_270
*1588 FILLER_19_277
*1589 FILLER_19_281
*1590 FILLER_19_297
*1591 FILLER_19_3
*1592 FILLER_19_34
*1593 FILLER_19_54
*1594 FILLER_19_57
*1595 FILLER_19_62
*1596 FILLER_19_74
*1597 FILLER_19_87
*1598 FILLER_19_95
*1599 FILLER_1_103
*1600 FILLER_1_110
*1601 FILLER_1_113
*1602 FILLER_1_123
*1603 FILLER_1_135
*1604 FILLER_1_157
*1605 FILLER_1_166
*1606 FILLER_1_169
*1607 FILLER_1_187
*1608 FILLER_1_207
*1609 FILLER_1_215
*1610 FILLER_1_222
*1611 FILLER_1_225
*1612 FILLER_1_243
*1613 FILLER_1_250
*1614 FILLER_1_257
*1615 FILLER_1_262
*1616 FILLER_1_266
*1617 FILLER_1_271
*1618 FILLER_1_278
*1619 FILLER_1_28
*1620 FILLER_1_281
*1621 FILLER_1_293
*1622 FILLER_1_3
*1623 FILLER_1_32
*1624 FILLER_1_49
*1625 FILLER_1_55
*1626 FILLER_1_57
*1627 FILLER_1_64
*1628 FILLER_1_71
*1629 FILLER_1_8
*1630 FILLER_1_80
*1631 FILLER_1_84
*1632 FILLER_1_95
*1633 FILLER_20_104
*1634 FILLER_20_112
*1635 FILLER_20_119
*1636 FILLER_20_130
*1637 FILLER_20_137
*1638 FILLER_20_141
*1639 FILLER_20_146
*1640 FILLER_20_154
*1641 FILLER_20_162
*1642 FILLER_20_166
*1643 FILLER_20_174
*1644 FILLER_20_178
*1645 FILLER_20_187
*1646 FILLER_20_195
*1647 FILLER_20_197
*1648 FILLER_20_205
*1649 FILLER_20_215
*1650 FILLER_20_224
*1651 FILLER_20_23
*1652 FILLER_20_239
*1653 FILLER_20_250
*1654 FILLER_20_253
*1655 FILLER_20_264
*1656 FILLER_20_27
*1657 FILLER_20_277
*1658 FILLER_20_288
*1659 FILLER_20_29
*1660 FILLER_20_295
*1661 FILLER_20_3
*1662 FILLER_20_38
*1663 FILLER_20_51
*1664 FILLER_20_59
*1665 FILLER_20_66
*1666 FILLER_20_77
*1667 FILLER_20_83
*1668 FILLER_20_85
*1669 FILLER_20_9
*1670 FILLER_20_94
*1671 FILLER_21_101
*1672 FILLER_21_110
*1673 FILLER_21_113
*1674 FILLER_21_121
*1675 FILLER_21_143
*1676 FILLER_21_163
*1677 FILLER_21_167
*1678 FILLER_21_169
*1679 FILLER_21_175
*1680 FILLER_21_197
*1681 FILLER_21_205
*1682 FILLER_21_215
*1683 FILLER_21_22
*1684 FILLER_21_222
*1685 FILLER_21_225
*1686 FILLER_21_234
*1687 FILLER_21_242
*1688 FILLER_21_252
*1689 FILLER_21_259
*1690 FILLER_21_272
*1691 FILLER_21_281
*1692 FILLER_21_287
*1693 FILLER_21_294
*1694 FILLER_21_298
*1695 FILLER_21_3
*1696 FILLER_21_34
*1697 FILLER_21_45
*1698 FILLER_21_54
*1699 FILLER_21_57
*1700 FILLER_21_76
*1701 FILLER_21_84
*1702 FILLER_21_90
*1703 FILLER_22_104
*1704 FILLER_22_114
*1705 FILLER_22_120
*1706 FILLER_22_127
*1707 FILLER_22_138
*1708 FILLER_22_141
*1709 FILLER_22_154
*1710 FILLER_22_163
*1711 FILLER_22_17
*1712 FILLER_22_183
*1713 FILLER_22_194
*1714 FILLER_22_197
*1715 FILLER_22_203
*1716 FILLER_22_220
*1717 FILLER_22_227
*1718 FILLER_22_241
*1719 FILLER_22_245
*1720 FILLER_22_250
*1721 FILLER_22_253
*1722 FILLER_22_26
*1723 FILLER_22_262
*1724 FILLER_22_269
*1725 FILLER_22_277
*1726 FILLER_22_283
*1727 FILLER_22_29
*1728 FILLER_22_295
*1729 FILLER_22_3
*1730 FILLER_22_41
*1731 FILLER_22_57
*1732 FILLER_22_61
*1733 FILLER_22_78
*1734 FILLER_22_85
*1735 FILLER_22_9
*1736 FILLER_23_105
*1737 FILLER_23_111
*1738 FILLER_23_113
*1739 FILLER_23_117
*1740 FILLER_23_12
*1741 FILLER_23_123
*1742 FILLER_23_136
*1743 FILLER_23_143
*1744 FILLER_23_147
*1745 FILLER_23_155
*1746 FILLER_23_166
*1747 FILLER_23_169
*1748 FILLER_23_174
*1749 FILLER_23_178
*1750 FILLER_23_196
*1751 FILLER_23_20
*1752 FILLER_23_207
*1753 FILLER_23_216
*1754 FILLER_23_225
*1755 FILLER_23_231
*1756 FILLER_23_239
*1757 FILLER_23_249
*1758 FILLER_23_257
*1759 FILLER_23_267
*1760 FILLER_23_276
*1761 FILLER_23_281
*1762 FILLER_23_291
*1763 FILLER_23_3
*1764 FILLER_23_30
*1765 FILLER_23_39
*1766 FILLER_23_49
*1767 FILLER_23_55
*1768 FILLER_23_57
*1769 FILLER_23_61
*1770 FILLER_23_69
*1771 FILLER_23_84
*1772 FILLER_23_92
*1773 FILLER_23_96
*1774 FILLER_24_103
*1775 FILLER_24_116
*1776 FILLER_24_122
*1777 FILLER_24_128
*1778 FILLER_24_138
*1779 FILLER_24_141
*1780 FILLER_24_146
*1781 FILLER_24_157
*1782 FILLER_24_168
*1783 FILLER_24_18
*1784 FILLER_24_181
*1785 FILLER_24_189
*1786 FILLER_24_194
*1787 FILLER_24_197
*1788 FILLER_24_208
*1789 FILLER_24_218
*1790 FILLER_24_228
*1791 FILLER_24_232
*1792 FILLER_24_238
*1793 FILLER_24_250
*1794 FILLER_24_253
*1795 FILLER_24_26
*1796 FILLER_24_269
*1797 FILLER_24_275
*1798 FILLER_24_283
*1799 FILLER_24_29
*1800 FILLER_24_292
*1801 FILLER_24_298
*1802 FILLER_24_3
*1803 FILLER_24_37
*1804 FILLER_24_44
*1805 FILLER_24_53
*1806 FILLER_24_64
*1807 FILLER_24_72
*1808 FILLER_24_78
*1809 FILLER_24_85
*1810 FILLER_24_91
*1811 FILLER_24_97
*1812 FILLER_25_101
*1813 FILLER_25_110
*1814 FILLER_25_113
*1815 FILLER_25_120
*1816 FILLER_25_124
*1817 FILLER_25_135
*1818 FILLER_25_141
*1819 FILLER_25_159
*1820 FILLER_25_166
*1821 FILLER_25_169
*1822 FILLER_25_180
*1823 FILLER_25_200
*1824 FILLER_25_210
*1825 FILLER_25_220
*1826 FILLER_25_225
*1827 FILLER_25_234
*1828 FILLER_25_247
*1829 FILLER_25_256
*1830 FILLER_25_260
*1831 FILLER_25_270
*1832 FILLER_25_278
*1833 FILLER_25_281
*1834 FILLER_25_290
*1835 FILLER_25_297
*1836 FILLER_25_3
*1837 FILLER_25_34
*1838 FILLER_25_47
*1839 FILLER_25_54
*1840 FILLER_25_57
*1841 FILLER_25_72
*1842 FILLER_25_76
*1843 FILLER_25_83
*1844 FILLER_25_9
*1845 FILLER_25_93
*1846 FILLER_26_103
*1847 FILLER_26_111
*1848 FILLER_26_122
*1849 FILLER_26_132
*1850 FILLER_26_141
*1851 FILLER_26_150
*1852 FILLER_26_158
*1853 FILLER_26_169
*1854 FILLER_26_185
*1855 FILLER_26_189
*1856 FILLER_26_194
*1857 FILLER_26_197
*1858 FILLER_26_206
*1859 FILLER_26_21
*1860 FILLER_26_212
*1861 FILLER_26_220
*1862 FILLER_26_227
*1863 FILLER_26_235
*1864 FILLER_26_242
*1865 FILLER_26_250
*1866 FILLER_26_253
*1867 FILLER_26_263
*1868 FILLER_26_27
*1869 FILLER_26_271
*1870 FILLER_26_281
*1871 FILLER_26_29
*1872 FILLER_26_291
*1873 FILLER_26_3
*1874 FILLER_26_40
*1875 FILLER_26_60
*1876 FILLER_26_81
*1877 FILLER_26_85
*1878 FILLER_26_95
*1879 FILLER_27_110
*1880 FILLER_27_113
*1881 FILLER_27_125
*1882 FILLER_27_137
*1883 FILLER_27_145
*1884 FILLER_27_154
*1885 FILLER_27_162
*1886 FILLER_27_169
*1887 FILLER_27_177
*1888 FILLER_27_195
*1889 FILLER_27_205
*1890 FILLER_27_215
*1891 FILLER_27_222
*1892 FILLER_27_225
*1893 FILLER_27_233
*1894 FILLER_27_24
*1895 FILLER_27_240
*1896 FILLER_27_250
*1897 FILLER_27_259
*1898 FILLER_27_263
*1899 FILLER_27_270
*1900 FILLER_27_278
*1901 FILLER_27_281
*1902 FILLER_27_293
*1903 FILLER_27_3
*1904 FILLER_27_41
*1905 FILLER_27_49
*1906 FILLER_27_54
*1907 FILLER_27_57
*1908 FILLER_27_70
*1909 FILLER_27_77
*1910 FILLER_27_85
*1911 FILLER_27_9
*1912 FILLER_27_97
*1913 FILLER_28_105
*1914 FILLER_28_113
*1915 FILLER_28_137
*1916 FILLER_28_141
*1917 FILLER_28_155
*1918 FILLER_28_170
*1919 FILLER_28_181
*1920 FILLER_28_189
*1921 FILLER_28_194
*1922 FILLER_28_197
*1923 FILLER_28_204
*1924 FILLER_28_21
*1925 FILLER_28_212
*1926 FILLER_28_231
*1927 FILLER_28_241
*1928 FILLER_28_250
*1929 FILLER_28_253
*1930 FILLER_28_259
*1931 FILLER_28_269
*1932 FILLER_28_27
*1933 FILLER_28_277
*1934 FILLER_28_289
*1935 FILLER_28_29
*1936 FILLER_28_297
*1937 FILLER_28_3
*1938 FILLER_28_37
*1939 FILLER_28_46
*1940 FILLER_28_57
*1941 FILLER_28_61
*1942 FILLER_28_68
*1943 FILLER_28_76
*1944 FILLER_28_82
*1945 FILLER_28_85
*1946 FILLER_28_93
*1947 FILLER_29_102
*1948 FILLER_29_11
*1949 FILLER_29_110
*1950 FILLER_29_113
*1951 FILLER_29_121