*SPEF "ieee 1481-1999"
*DESIGN "morningjava_top"
*DATE "11:11:11 Fri 11 11, 1111"
*VENDOR "OpenRCX"
*PROGRAM "Parallel Extraction"
*VERSION "1.0"
*DESIGN_FLOW "NAME_SCOPE LOCAL" "PIN_CAP NONE"
*DIVIDER /
*DELIMITER :
*BUS_DELIMITER []
*T_UNIT 1 NS
*C_UNIT 1 PF
*R_UNIT 1 OHM
*L_UNIT 1 HENRY

*NAME_MAP
*1 io_in[0]
*2 io_in[1]
*3 io_in[2]
*4 io_in[3]
*5 io_in[4]
*6 io_in[5]
*7 io_in[6]
*8 io_in[7]
*9 io_out[0]
*10 io_out[1]
*11 io_out[2]
*12 io_out[3]
*13 io_out[4]
*14 io_out[5]
*15 io_out[6]
*16 io_out[7]
*19 _0000_
*20 _0001_
*21 _0002_
*22 _0003_
*23 _0004_
*24 _0005_
*25 _0006_
*26 _0007_
*27 _0008_
*28 _0009_
*29 _0010_
*30 _0011_
*31 _0012_
*32 _0013_
*33 _0014_
*34 _0015_
*35 _0016_
*36 _0017_
*37 _0018_
*38 _0019_
*39 _0020_
*40 _0021_
*41 _0022_
*42 _0023_
*43 _0024_
*44 _0025_
*45 _0026_
*46 _0027_
*47 _0028_
*48 _0029_
*49 _0030_
*50 _0031_
*51 _0032_
*52 _0033_
*53 _0034_
*54 _0035_
*55 _0036_
*56 _0037_
*57 _0038_
*58 _0039_
*59 _0040_
*60 _0041_
*61 _0042_
*62 _0043_
*63 _0044_
*64 _0045_
*65 _0046_
*66 _0047_
*67 _0048_
*68 _0049_
*69 _0050_
*70 _0051_
*71 _0052_
*72 _0053_
*73 _0054_
*74 _0055_
*75 _0056_
*76 _0057_
*77 _0058_
*78 _0059_
*79 _0060_
*80 _0061_
*81 _0062_
*82 _0063_
*83 _0064_
*84 _0065_
*85 _0066_
*86 _0067_
*87 _0068_
*88 _0069_
*89 _0070_
*90 _0071_
*91 _0072_
*92 _0073_
*93 _0074_
*94 _0075_
*95 _0076_
*96 _0077_
*97 _0078_
*98 _0079_
*99 _0080_
*100 _0081_
*101 _0082_
*102 _0083_
*103 _0084_
*104 _0085_
*105 _0086_
*106 _0087_
*107 _0088_
*108 _0089_
*109 _0090_
*110 _0091_
*111 _0092_
*112 _0093_
*113 _0094_
*114 _0095_
*115 _0096_
*116 _0097_
*117 _0098_
*118 _0099_
*119 _0100_
*120 _0101_
*121 _0102_
*122 _0103_
*123 _0104_
*124 _0105_
*125 _0106_
*126 _0107_
*127 _0108_
*128 _0109_
*129 _0110_
*130 _0111_
*131 _0112_
*132 _0113_
*133 _0114_
*134 _0115_
*135 _0116_
*136 _0117_
*137 _0118_
*138 _0119_
*139 _0120_
*140 _0121_
*141 _0122_
*142 _0123_
*143 _0124_
*144 _0125_
*145 _0126_
*146 _0127_
*147 _0128_
*148 _0129_
*149 _0130_
*150 _0131_
*151 _0132_
*152 _0133_
*153 _0134_
*154 _0135_
*155 _0136_
*156 _0137_
*157 _0138_
*158 _0139_
*159 _0140_
*160 _0141_
*161 _0142_
*162 _0143_
*163 _0144_
*164 _0145_
*165 _0146_
*166 _0147_
*167 _0148_
*168 _0149_
*169 _0150_
*170 _0151_
*171 _0152_
*172 _0153_
*173 _0154_
*174 _0155_
*175 _0156_
*176 _0157_
*177 _0158_
*178 _0159_
*179 _0160_
*180 _0161_
*181 _0162_
*182 _0163_
*183 _0164_
*184 _0165_
*185 _0166_
*186 _0167_
*187 _0168_
*188 _0169_
*189 _0170_
*190 _0171_
*191 _0172_
*192 _0173_
*193 _0174_
*194 _0175_
*195 _0176_
*196 _0177_
*197 _0178_
*198 _0179_
*199 _0180_
*200 _0181_
*201 _0182_
*202 _0183_
*203 _0184_
*204 _0185_
*205 _0186_
*206 _0187_
*207 _0188_
*208 _0189_
*209 _0190_
*210 _0191_
*211 _0192_
*212 _0193_
*213 _0194_
*214 _0195_
*215 _0196_
*216 _0197_
*217 _0198_
*218 _0199_
*219 _0200_
*220 _0201_
*221 _0202_
*222 _0203_
*223 _0204_
*224 _0205_
*225 _0206_
*226 _0207_
*227 _0208_
*228 _0209_
*229 _0210_
*230 _0211_
*231 _0212_
*232 _0213_
*233 _0214_
*234 _0215_
*235 _0216_
*236 _0217_
*237 _0218_
*238 _0219_
*239 _0220_
*240 _0221_
*241 _0222_
*242 _0223_
*243 _0224_
*244 _0225_
*245 _0226_
*246 _0227_
*247 _0228_
*248 _0229_
*249 _0230_
*250 _0231_
*251 _0232_
*252 _0233_
*253 _0234_
*254 _0235_
*255 _0236_
*256 _0237_
*257 _0238_
*258 _0239_
*259 _0240_
*260 _0241_
*261 _0242_
*262 _0243_
*263 _0244_
*264 _0245_
*265 _0246_
*266 _0247_
*267 _0248_
*268 _0249_
*269 _0250_
*270 _0251_
*271 _0252_
*272 _0253_
*273 _0254_
*274 _0255_
*275 _0256_
*276 _0257_
*277 _0258_
*278 _0259_
*279 _0260_
*280 _0261_
*281 _0262_
*282 _0263_
*283 _0264_
*284 _0265_
*285 _0266_
*286 _0267_
*287 _0268_
*288 _0269_
*289 _0270_
*290 _0271_
*291 _0272_
*292 _0273_
*293 _0274_
*294 _0275_
*295 _0276_
*296 _0277_
*297 _0278_
*298 _0279_
*299 _0280_
*300 _0281_
*301 _0282_
*302 _0283_
*303 _0284_
*304 _0285_
*305 _0286_
*306 _0287_
*307 _0288_
*308 _0289_
*309 _0290_
*310 _0291_
*311 _0292_
*312 _0293_
*313 _0294_
*314 _0295_
*315 _0296_
*316 _0297_
*317 _0298_
*318 _0299_
*319 _0300_
*320 _0301_
*321 _0302_
*322 _0303_
*323 _0304_
*324 _0305_
*325 _0306_
*326 _0307_
*327 _0308_
*328 _0309_
*329 _0310_
*330 _0311_
*331 _0312_
*332 _0313_
*333 _0314_
*334 _0315_
*335 _0316_
*336 _0317_
*337 _0318_
*338 _0319_
*339 _0320_
*340 _0321_
*341 _0322_
*342 _0323_
*343 _0324_
*344 _0325_
*345 _0326_
*346 _0327_
*347 _0328_
*348 _0329_
*349 _0330_
*350 _0331_
*351 _0332_
*352 _0333_
*353 _0334_
*354 _0335_
*355 _0336_
*356 _0337_
*357 _0338_
*358 _0339_
*359 _0340_
*360 _0341_
*361 _0342_
*362 _0343_
*363 _0344_
*364 _0345_
*365 _0346_
*366 _0347_
*367 _0348_
*368 _0349_
*369 _0350_
*370 _0351_
*371 _0352_
*372 _0353_
*373 _0354_
*374 _0355_
*375 _0356_
*376 _0357_
*377 _0358_
*378 _0359_
*379 _0360_
*380 _0361_
*381 _0362_
*382 _0363_
*383 _0364_
*384 _0365_
*385 _0366_
*386 _0367_
*387 _0368_
*388 _0369_
*389 _0370_
*390 _0371_
*391 _0372_
*392 _0373_
*393 _0374_
*394 _0375_
*395 _0376_
*396 _0377_
*397 _0378_
*398 _0379_
*399 _0380_
*400 _0381_
*401 _0382_
*402 _0383_
*403 _0384_
*404 _0385_
*405 _0386_
*406 _0387_
*407 _0388_
*408 _0389_
*409 _0390_
*410 _0391_
*411 _0392_
*412 _0393_
*413 _0394_
*414 _0395_
*415 _0396_
*416 _0397_
*417 _0398_
*418 _0399_
*419 _0400_
*420 _0401_
*421 _0402_
*422 _0403_
*423 _0404_
*424 _0405_
*425 _0406_
*426 _0407_
*427 _0408_
*428 _0409_
*429 _0410_
*430 _0411_
*431 _0412_
*432 _0413_
*433 _0414_
*434 _0415_
*435 _0416_
*436 _0417_
*437 _0418_
*438 _0419_
*439 _0420_
*440 _0421_
*441 _0422_
*442 _0423_
*443 _0424_
*444 _0425_
*445 _0426_
*446 _0427_
*447 _0428_
*448 _0429_
*449 _0430_
*450 _0431_
*451 _0432_
*452 _0433_
*453 _0434_
*454 _0435_
*455 _0436_
*456 _0437_
*457 _0438_
*458 _0439_
*459 _0440_
*460 _0441_
*461 _0442_
*462 _0443_
*463 _0444_
*464 _0445_
*465 _0446_
*466 _0447_
*467 _0448_
*468 _0449_
*469 _0450_
*470 _0451_
*471 _0452_
*472 _0453_
*473 _0454_
*474 _0455_
*475 _0456_
*476 _0457_
*477 _0458_
*478 _0459_
*479 _0460_
*480 _0461_
*481 _0462_
*482 _0463_
*483 _0464_
*484 _0465_
*485 _0466_
*486 _0467_
*487 _0468_
*488 _0469_
*489 _0470_
*490 _0471_
*491 _0472_
*492 _0473_
*493 _0474_
*494 _0475_
*495 _0476_
*496 _0477_
*497 _0478_
*498 _0479_
*499 _0480_
*500 _0481_
*501 _0482_
*502 _0483_
*503 _0484_
*504 _0485_
*505 _0486_
*506 _0487_
*507 _0488_
*508 _0489_
*509 _0490_
*510 _0491_
*511 _0492_
*512 _0493_
*513 _0494_
*514 _0495_
*515 _0496_
*516 _0497_
*517 _0498_
*518 _0499_
*519 _0500_
*520 _0501_
*521 _0502_
*522 _0503_
*523 _0504_
*524 _0505_
*525 _0506_
*526 _0507_
*527 _0508_
*528 _0509_
*529 _0510_
*530 _0511_
*531 _0512_
*532 _0513_
*533 _0514_
*534 _0515_
*535 _0516_
*536 _0517_
*537 _0518_
*538 _0519_
*539 _0520_
*540 _0521_
*541 _0522_
*542 _0523_
*543 _0524_
*544 _0525_
*545 _0526_
*546 _0527_
*547 _0528_
*548 _0529_
*549 _0530_
*550 _0531_
*551 _0532_
*552 _0533_
*553 _0534_
*554 _0535_
*555 _0536_
*556 _0537_
*557 _0538_
*558 _0539_
*559 _0540_
*560 _0541_
*561 _0542_
*562 _0543_
*563 _0544_
*564 _0545_
*565 _0546_
*566 _0547_
*567 _0548_
*568 _0549_
*569 _0550_
*570 _0551_
*571 _0552_
*572 _0553_
*573 _0554_
*574 _0555_
*575 _0556_
*576 _0557_
*577 _0558_
*578 _0559_
*579 _0560_
*580 _0561_
*581 _0562_
*582 _0563_
*583 _0564_
*584 _0565_
*585 _0566_
*586 _0567_
*587 _0568_
*588 _0569_
*589 _0570_
*590 _0571_
*591 _0572_
*592 _0573_
*593 _0574_
*594 _0575_
*595 _0576_
*596 _0577_
*597 _0578_
*598 _0579_
*599 _0580_
*600 _0581_
*601 _0582_
*602 _0583_
*603 _0584_
*604 _0585_
*605 _0586_
*606 _0587_
*607 _0588_
*608 _0589_
*609 _0590_
*610 _0591_
*611 _0592_
*612 _0593_
*613 _0594_
*614 _0595_
*615 _0596_
*616 _0597_
*617 _0598_
*618 chiptune_top\.decoder_inst\.apu_reg_0\[0\]
*619 chiptune_top\.decoder_inst\.apu_reg_0\[1\]
*620 chiptune_top\.decoder_inst\.apu_reg_0\[2\]
*621 chiptune_top\.decoder_inst\.apu_reg_0\[3\]
*622 chiptune_top\.decoder_inst\.apu_reg_0\[4\]
*623 chiptune_top\.decoder_inst\.apu_reg_0\[5\]
*624 chiptune_top\.decoder_inst\.apu_reg_0\[6\]
*625 chiptune_top\.decoder_inst\.apu_reg_0\[7\]
*626 chiptune_top\.decoder_inst\.apu_reg_1\[0\]
*627 chiptune_top\.decoder_inst\.apu_reg_1\[1\]
*628 chiptune_top\.decoder_inst\.apu_reg_1\[2\]
*629 chiptune_top\.decoder_inst\.apu_reg_1\[3\]
*630 chiptune_top\.decoder_inst\.apu_reg_1\[4\]
*631 chiptune_top\.decoder_inst\.apu_reg_1\[5\]
*632 chiptune_top\.decoder_inst\.apu_reg_1\[6\]
*633 chiptune_top\.decoder_inst\.apu_reg_1\[7\]
*634 chiptune_top\.decoder_inst\.apu_reg_2\[0\]
*635 chiptune_top\.decoder_inst\.apu_reg_2\[1\]
*636 chiptune_top\.decoder_inst\.apu_reg_2\[2\]
*637 chiptune_top\.decoder_inst\.apu_reg_2\[3\]
*638 chiptune_top\.decoder_inst\.apu_reg_2\[4\]
*639 chiptune_top\.decoder_inst\.apu_reg_2\[5\]
*640 chiptune_top\.decoder_inst\.apu_reg_2\[6\]
*641 chiptune_top\.decoder_inst\.apu_reg_2\[7\]
*642 chiptune_top\.decoder_inst\.apu_reg_3\[0\]
*643 chiptune_top\.decoder_inst\.apu_reg_3\[1\]
*644 chiptune_top\.decoder_inst\.apu_reg_3\[2\]
*645 chiptune_top\.decoder_inst\.apu_reg_3\[3\]
*646 chiptune_top\.decoder_inst\.apu_reg_3\[4\]
*647 chiptune_top\.decoder_inst\.apu_reg_3\[5\]
*648 chiptune_top\.decoder_inst\.apu_reg_3\[6\]
*649 chiptune_top\.decoder_inst\.apu_reg_3\[7\]
*650 chiptune_top\.decoder_inst\.bit_count\[0\]
*651 chiptune_top\.decoder_inst\.bit_count\[1\]
*652 chiptune_top\.decoder_inst\.bit_count\[2\]
*653 chiptune_top\.decoder_inst\.bit_count\[3\]
*654 chiptune_top\.decoder_inst\.hold\[0\]
*655 chiptune_top\.decoder_inst\.hold\[1\]
*656 chiptune_top\.decoder_inst\.hold\[2\]
*657 chiptune_top\.decoder_inst\.hold\[3\]
*658 chiptune_top\.decoder_inst\.reg_change
*659 chiptune_top\.decoder_inst\.shift\[0\]
*660 chiptune_top\.decoder_inst\.shift\[1\]
*661 chiptune_top\.decoder_inst\.shift\[2\]
*662 chiptune_top\.decoder_inst\.shift\[3\]
*663 chiptune_top\.decoder_inst\.shift\[4\]
*664 chiptune_top\.decoder_inst\.shift\[5\]
*665 chiptune_top\.decoder_inst\.shift\[6\]
*666 chiptune_top\.decoder_inst\.shift\[7\]
*667 chiptune_top\.decoder_inst\.shift\[8\]
*668 chiptune_top\.decoder_inst\.shift\[9\]
*669 chiptune_top\.frame_counter_inst\.counter\[0\]
*670 chiptune_top\.frame_counter_inst\.counter\[1\]
*671 chiptune_top\.frame_counter_inst\.counter\[2\]
*672 chiptune_top\.frame_counter_inst\.counter\[3\]
*673 chiptune_top\.frame_counter_inst\.hlf_clk
*674 chiptune_top\.frame_counter_inst\.qtr_clk
*675 chiptune_top\.pulse_inst\.duty_cycle_index\[0\]
*676 chiptune_top\.pulse_inst\.duty_cycle_index\[1\]
*677 chiptune_top\.pulse_inst\.duty_cycle_index\[2\]
*678 chiptune_top\.pulse_inst\.env_change
*679 chiptune_top\.pulse_inst\.envelope_counter\[0\]
*680 chiptune_top\.pulse_inst\.envelope_counter\[1\]
*681 chiptune_top\.pulse_inst\.envelope_counter\[2\]
*682 chiptune_top\.pulse_inst\.envelope_counter\[3\]
*683 chiptune_top\.pulse_inst\.envelope_out\[0\]
*684 chiptune_top\.pulse_inst\.envelope_out\[1\]
*685 chiptune_top\.pulse_inst\.envelope_out\[2\]
*686 chiptune_top\.pulse_inst\.envelope_out\[3\]
*687 chiptune_top\.pulse_inst\.envelope_prescale\[0\]
*688 chiptune_top\.pulse_inst\.envelope_prescale\[1\]
*689 chiptune_top\.pulse_inst\.envelope_prescale\[2\]
*690 chiptune_top\.pulse_inst\.envelope_prescale\[3\]
*691 chiptune_top\.pulse_inst\.envelope_start
*692 chiptune_top\.pulse_inst\.length_counter\[0\]
*693 chiptune_top\.pulse_inst\.length_counter\[1\]
*694 chiptune_top\.pulse_inst\.length_counter\[2\]
*695 chiptune_top\.pulse_inst\.length_counter\[3\]
*696 chiptune_top\.pulse_inst\.length_counter\[4\]
*697 chiptune_top\.pulse_inst\.length_counter\[5\]
*698 chiptune_top\.pulse_inst\.length_counter\[6\]
*699 chiptune_top\.pulse_inst\.length_counter\[7\]
*700 chiptune_top\.pulse_inst\.seq_change
*701 chiptune_top\.pulse_inst\.seq_reset
*702 chiptune_top\.pulse_inst\.swp_change
*703 chiptune_top\.pulse_inst\.swp_div\[0\]
*704 chiptune_top\.pulse_inst\.swp_div\[1\]
*705 chiptune_top\.pulse_inst\.swp_div\[2\]
*706 chiptune_top\.pulse_inst\.swp_reload
*707 chiptune_top\.pulse_inst\.timer_counter\[0\]
*708 chiptune_top\.pulse_inst\.timer_counter\[10\]
*709 chiptune_top\.pulse_inst\.timer_counter\[1\]
*710 chiptune_top\.pulse_inst\.timer_counter\[2\]
*711 chiptune_top\.pulse_inst\.timer_counter\[3\]
*712 chiptune_top\.pulse_inst\.timer_counter\[4\]
*713 chiptune_top\.pulse_inst\.timer_counter\[5\]
*714 chiptune_top\.pulse_inst\.timer_counter\[6\]
*715 chiptune_top\.pulse_inst\.timer_counter\[7\]
*716 chiptune_top\.pulse_inst\.timer_counter\[8\]
*717 chiptune_top\.pulse_inst\.timer_counter\[9\]
*718 chiptune_top\.pulse_inst\.timer_preload\[0\]
*719 chiptune_top\.pulse_inst\.timer_preload\[10\]
*720 chiptune_top\.pulse_inst\.timer_preload\[1\]
*721 chiptune_top\.pulse_inst\.timer_preload\[2\]
*722 chiptune_top\.pulse_inst\.timer_preload\[3\]
*723 chiptune_top\.pulse_inst\.timer_preload\[4\]
*724 chiptune_top\.pulse_inst\.timer_preload\[5\]
*725 chiptune_top\.pulse_inst\.timer_preload\[6\]
*726 chiptune_top\.pulse_inst\.timer_preload\[7\]
*727 chiptune_top\.pulse_inst\.timer_preload\[8\]
*728 chiptune_top\.pulse_inst\.timer_preload\[9\]
*729 clk_gen_inst\.count\[0\]
*730 clk_gen_inst\.count\[1\]
*731 clk_gen_inst\.count\[2\]
*732 clk_gen_inst\.count\[3\]
*733 clk_gen_inst\.rtck
*734 clk_gen_inst\.rx_meta
*735 clk_gen_inst\.tdi
*736 clk_gen_inst\.tdi_delay
*737 controller_inst\.rtck
*738 controller_inst\.tdo
*739 net1
*740 net10
*741 net11
*742 net12
*743 net13
*744 net14
*745 net15
*746 net16
*747 net17
*748 net18
*749 net19
*750 net2
*751 net20
*752 net21
*753 net22
*754 net23
*755 net24
*756 net25
*757 net26
*758 net27
*759 net28
*760 net3
*761 net4
*762 net5
*763 net6
*764 net7
*765 net8
*766 net9
*767 tap_gen\[1\]\.tap_inst\.active
*768 tap_gen\[1\]\.tap_inst\.bit_count\[0\]
*769 tap_gen\[1\]\.tap_inst\.bit_count\[1\]
*770 tap_gen\[1\]\.tap_inst\.bit_count\[2\]
*771 tap_gen\[1\]\.tap_inst\.bit_count\[3\]
*772 tap_gen\[1\]\.tap_inst\.i_tms
*773 tap_gen\[1\]\.tap_inst\.inbound\[0\]
*774 tap_gen\[1\]\.tap_inst\.inbound\[1\]
*775 tap_gen\[1\]\.tap_inst\.inbound\[2\]
*776 tap_gen\[1\]\.tap_inst\.inbound\[3\]
*777 tap_gen\[1\]\.tap_inst\.inbound\[4\]
*778 tap_gen\[1\]\.tap_inst\.inbound\[5\]
*779 tap_gen\[1\]\.tap_inst\.inbound\[6\]
*780 tap_gen\[1\]\.tap_inst\.inbound\[7\]
*781 tap_gen\[1\]\.tap_inst\.q_tdo
*782 tap_gen\[1\]\.tap_inst\.shift\[0\]
*783 tap_gen\[1\]\.tap_inst\.shift\[1\]
*784 tap_gen\[1\]\.tap_inst\.shift\[2\]
*785 tap_gen\[1\]\.tap_inst\.shift\[3\]
*786 tap_gen\[1\]\.tap_inst\.shift\[4\]
*787 tap_gen\[1\]\.tap_inst\.shift\[5\]
*788 tap_gen\[1\]\.tap_inst\.shift\[6\]
*789 tap_gen\[1\]\.tap_inst\.shift\[7\]
*790 tap_gen\[1\]\.tap_inst\.shift\[8\]
*791 tap_gen\[1\]\.tap_inst\.shift\[9\]
*792 tap_gen\[2\]\.tap_inst\.active
*793 tap_gen\[2\]\.tap_inst\.bit_count\[0\]
*794 tap_gen\[2\]\.tap_inst\.bit_count\[1\]
*795 tap_gen\[2\]\.tap_inst\.bit_count\[2\]
*796 tap_gen\[2\]\.tap_inst\.bit_count\[3\]
*797 tap_gen\[2\]\.tap_inst\.inbound\[0\]
*798 tap_gen\[2\]\.tap_inst\.inbound\[1\]
*799 tap_gen\[2\]\.tap_inst\.inbound\[2\]
*800 tap_gen\[2\]\.tap_inst\.inbound\[3\]
*801 tap_gen\[2\]\.tap_inst\.inbound\[4\]
*802 tap_gen\[2\]\.tap_inst\.inbound\[5\]
*803 tap_gen\[2\]\.tap_inst\.inbound\[6\]
*804 tap_gen\[2\]\.tap_inst\.inbound\[7\]
*805 tap_gen\[2\]\.tap_inst\.q_tdo
*806 tap_gen\[2\]\.tap_inst\.shift\[0\]
*807 tap_gen\[2\]\.tap_inst\.shift\[1\]
*808 tap_gen\[2\]\.tap_inst\.shift\[2\]
*809 tap_gen\[2\]\.tap_inst\.shift\[3\]
*810 tap_gen\[2\]\.tap_inst\.shift\[4\]
*811 tap_gen\[2\]\.tap_inst\.shift\[5\]
*812 tap_gen\[2\]\.tap_inst\.shift\[6\]
*813 tap_gen\[2\]\.tap_inst\.shift\[7\]
*814 tap_gen\[2\]\.tap_inst\.shift\[8\]
*815 tap_gen\[2\]\.tap_inst\.shift\[9\]
*816 FILLER_0_109
*817 FILLER_0_113
*818 FILLER_0_125
*819 FILLER_0_137
*820 FILLER_0_141
*821 FILLER_0_153
*822 FILLER_0_165
*823 FILLER_0_169
*824 FILLER_0_181
*825 FILLER_0_193
*826 FILLER_0_197
*827 FILLER_0_209
*828 FILLER_0_21
*829 FILLER_0_221
*830 FILLER_0_225
*831 FILLER_0_237
*832 FILLER_0_249
*833 FILLER_0_253
*834 FILLER_0_265
*835 FILLER_0_27
*836 FILLER_0_277
*837 FILLER_0_281
*838 FILLER_0_29
*839 FILLER_0_293
*840 FILLER_0_3
*841 FILLER_0_35
*842 FILLER_0_47
*843 FILLER_0_55
*844 FILLER_0_57
*845 FILLER_0_68
*846 FILLER_0_80
*847 FILLER_0_85
*848 FILLER_0_9
*849 FILLER_0_97
*850 FILLER_10_103
*851 FILLER_10_115
*852 FILLER_10_127
*853 FILLER_10_134
*854 FILLER_10_141
*855 FILLER_10_147
*856 FILLER_10_154
*857 FILLER_10_160
*858 FILLER_10_177
*859 FILLER_10_194
*860 FILLER_10_197
*861 FILLER_10_216
*862 FILLER_10_228
*863 FILLER_10_240
*864 FILLER_10_25
*865 FILLER_10_253
*866 FILLER_10_265
*867 FILLER_10_277
*868 FILLER_10_289
*869 FILLER_10_29
*870 FILLER_10_297
*871 FILLER_10_3
*872 FILLER_10_48
*873 FILLER_10_56
*874 FILLER_10_69
*875 FILLER_10_77
*876 FILLER_10_82
*877 FILLER_10_85
*878 FILLER_11_108
*879 FILLER_11_113
*880 FILLER_11_125
*881 FILLER_11_129
*882 FILLER_11_134
*883 FILLER_11_14
*884 FILLER_11_142
*885 FILLER_11_153
*886 FILLER_11_160
*887 FILLER_11_169
*888 FILLER_11_175
*889 FILLER_11_181
*890 FILLER_11_198
*891 FILLER_11_211
*892 FILLER_11_223
*893 FILLER_11_225
*894 FILLER_11_237
*895 FILLER_11_249
*896 FILLER_11_26
*897 FILLER_11_261
*898 FILLER_11_273
*899 FILLER_11_279
*900 FILLER_11_281
*901 FILLER_11_293
*902 FILLER_11_3
*903 FILLER_11_34
*904 FILLER_11_40
*905 FILLER_11_46
*906 FILLER_11_54
*907 FILLER_11_57
*908 FILLER_11_62
*909 FILLER_11_82
*910 FILLER_11_89
*911 FILLER_11_9
*912 FILLER_11_96
*913 FILLER_12_103
*914 FILLER_12_110
*915 FILLER_12_118
*916 FILLER_12_124
*917 FILLER_12_136
*918 FILLER_12_141
*919 FILLER_12_146
*920 FILLER_12_156
*921 FILLER_12_166
*922 FILLER_12_172
*923 FILLER_12_179
*924 FILLER_12_187
*925 FILLER_12_194
*926 FILLER_12_197
*927 FILLER_12_204
*928 FILLER_12_208
*929 FILLER_12_214
*930 FILLER_12_222
*931 FILLER_12_234
*932 FILLER_12_246
*933 FILLER_12_253
*934 FILLER_12_26
*935 FILLER_12_265
*936 FILLER_12_277
*937 FILLER_12_289
*938 FILLER_12_29
*939 FILLER_12_297
*940 FILLER_12_3
*941 FILLER_12_40
*942 FILLER_12_53
*943 FILLER_12_61
*944 FILLER_12_69
*945 FILLER_12_76
*946 FILLER_12_85
*947 FILLER_12_9
*948 FILLER_13_110
*949 FILLER_13_113
*950 FILLER_13_119
*951 FILLER_13_123
*952 FILLER_13_130
*953 FILLER_13_142
*954 FILLER_13_149
*955 FILLER_13_160
*956 FILLER_13_169
*957 FILLER_13_178
*958 FILLER_13_187
*959 FILLER_13_195
*960 FILLER_13_202
*961 FILLER_13_211
*962 FILLER_13_223
*963 FILLER_13_225
*964 FILLER_13_237
*965 FILLER_13_249
*966 FILLER_13_26
*967 FILLER_13_261
*968 FILLER_13_273
*969 FILLER_13_279
*970 FILLER_13_281
*971 FILLER_13_293
*972 FILLER_13_3
*973 FILLER_13_34
*974 FILLER_13_51
*975 FILLER_13_55
*976 FILLER_13_57
*977 FILLER_13_79
*978 FILLER_13_86
*979 FILLER_14_11
*980 FILLER_14_110
*981 FILLER_14_130
*982 FILLER_14_138
*983 FILLER_14_141
*984 FILLER_14_145
*985 FILLER_14_154
*986 FILLER_14_163
*987 FILLER_14_171
*988 FILLER_14_179
*989 FILLER_14_187
*990 FILLER_14_194
*991 FILLER_14_197
*992 FILLER_14_203
*993 FILLER_14_21
*994 FILLER_14_220
*995 FILLER_14_232
*996 FILLER_14_244
*997 FILLER_14_253
*998 FILLER_14_265
*999 FILLER_14_27
*1000 FILLER_14_277
*1001 FILLER_14_289
*1002 FILLER_14_29
*1003 FILLER_14_297
*1004 FILLER_14_3
*1005 FILLER_14_36
*1006 FILLER_14_44
*1007 FILLER_14_54
*1008 FILLER_14_61
*1009 FILLER_14_65
*1010 FILLER_14_82
*1011 FILLER_14_85
*1012 FILLER_14_95
*1013 FILLER_15_101
*1014 FILLER_15_110
*1015 FILLER_15_113
*1016 FILLER_15_119
*1017 FILLER_15_126
*1018 FILLER_15_133
*1019 FILLER_15_14
*1020 FILLER_15_142
*1021 FILLER_15_146
*1022 FILLER_15_150
*1023 FILLER_15_158
*1024 FILLER_15_166
*1025 FILLER_15_169
*1026 FILLER_15_177
*1027 FILLER_15_187
*1028 FILLER_15_191
*1029 FILLER_15_197
*1030 FILLER_15_206
*1031 FILLER_15_214
*1032 FILLER_15_222
*1033 FILLER_15_225
*1034 FILLER_15_237
*1035 FILLER_15_249
*1036 FILLER_15_26
*1037 FILLER_15_261
*1038 FILLER_15_273
*1039 FILLER_15_279
*1040 FILLER_15_281
*1041 FILLER_15_293
*1042 FILLER_15_3
*1043 FILLER_15_35
*1044 FILLER_15_43
*1045 FILLER_15_49
*1046 FILLER_15_54
*1047 FILLER_15_57
*1048 FILLER_15_79
*1049 FILLER_15_94
*1050 FILLER_16_101
*1051 FILLER_16_109
*1052 FILLER_16_117
*1053 FILLER_16_121
*1054 FILLER_16_125
*1055 FILLER_16_129
*1056 FILLER_16_138
*1057 FILLER_16_141
*1058 FILLER_16_147
*1059 FILLER_16_15
*1060 FILLER_16_155
*1061 FILLER_16_163
*1062 FILLER_16_173
*1063 FILLER_16_180
*1064 FILLER_16_19
*1065 FILLER_16_193
*1066 FILLER_16_197
*1067 FILLER_16_202
*1068 FILLER_16_214
*1069 FILLER_16_226
*1070 FILLER_16_238
*1071 FILLER_16_250
*1072 FILLER_16_253
*1073 FILLER_16_26
*1074 FILLER_16_265
*1075 FILLER_16_277
*1076 FILLER_16_289
*1077 FILLER_16_29
*1078 FILLER_16_297
*1079 FILLER_16_3
*1080 FILLER_16_35
*1081 FILLER_16_52
*1082 FILLER_16_59
*1083 FILLER_16_69
*1084 FILLER_16_78
*1085 FILLER_16_85
*1086 FILLER_16_93
*1087 FILLER_17_108
*1088 FILLER_17_113
*1089 FILLER_17_131
*1090 FILLER_17_139
*1091 FILLER_17_151
*1092 FILLER_17_162
*1093 FILLER_17_169
*1094 FILLER_17_178
*1095 FILLER_17_19
*1096 FILLER_17_198
*1097 FILLER_17_209
*1098 FILLER_17_221
*1099 FILLER_17_225
*1100 FILLER_17_23
*1101 FILLER_17_237
*1102 FILLER_17_249
*1103 FILLER_17_261
*1104 FILLER_17_27
*1105 FILLER_17_273
*1106 FILLER_17_279
*1107 FILLER_17_281
*1108 FILLER_17_293
*1109 FILLER_17_3
*1110 FILLER_17_40
*1111 FILLER_17_46
*1112 FILLER_17_54
*1113 FILLER_17_57
*1114 FILLER_17_72
*1115 FILLER_17_78
*1116 FILLER_17_88
*1117 FILLER_17_9
*1118 FILLER_18_119
*1119 FILLER_18_132
*1120 FILLER_18_141
*1121 FILLER_18_148
*1122 FILLER_18_160
*1123 FILLER_18_172
*1124 FILLER_18_182
*1125 FILLER_18_191
*1126 FILLER_18_195
*1127 FILLER_18_197
*1128 FILLER_18_217
*1129 FILLER_18_224
*1130 FILLER_18_236
*1131 FILLER_18_248
*1132 FILLER_18_253
*1133 FILLER_18_26
*1134 FILLER_18_265
*1135 FILLER_18_277
*1136 FILLER_18_289
*1137 FILLER_18_29
*1138 FILLER_18_297
*1139 FILLER_18_3
*1140 FILLER_18_47
*1141 FILLER_18_51
*1142 FILLER_18_58
*1143 FILLER_18_62
*1144 FILLER_18_79
*1145 FILLER_18_83
*1146 FILLER_18_85
*1147 FILLER_18_96
*1148 FILLER_19_105
*1149 FILLER_19_110
*1150 FILLER_19_113
*1151 FILLER_19_124
*1152 FILLER_19_133
*1153 FILLER_19_153
*1154 FILLER_19_157
*1155 FILLER_19_165
*1156 FILLER_19_169
*1157 FILLER_19_180
*1158 FILLER_19_193
*1159 FILLER_19_210
*1160 FILLER_19_218
*1161 FILLER_19_225
*1162 FILLER_19_237
*1163 FILLER_19_249
*1164 FILLER_19_261
*1165 FILLER_19_273
*1166 FILLER_19_279
*1167 FILLER_19_281
*1168 FILLER_19_293
*1169 FILLER_19_3
*1170 FILLER_19_33
*1171 FILLER_19_37
*1172 FILLER_19_42
*1173 FILLER_19_53
*1174 FILLER_19_57
*1175 FILLER_19_64
*1176 FILLER_19_72
*1177 FILLER_19_80
*1178 FILLER_19_9
*1179 FILLER_19_97
*1180 FILLER_1_103
*1181 FILLER_1_111
*1182 FILLER_1_113
*1183 FILLER_1_125
*1184 FILLER_1_137
*1185 FILLER_1_14
*1186 FILLER_1_149
*1187 FILLER_1_161
*1188 FILLER_1_167
*1189 FILLER_1_169
*1190 FILLER_1_181
*1191 FILLER_1_193
*1192 FILLER_1_205
*1193 FILLER_1_217
*1194 FILLER_1_223
*1195 FILLER_1_225
*1196 FILLER_1_23
*1197 FILLER_1_237
*1198 FILLER_1_249
*1199 FILLER_1_261
*1200 FILLER_1_273
*1201 FILLER_1_279
*1202 FILLER_1_281
*1203 FILLER_1_293
*1204 FILLER_1_3
*1205 FILLER_1_47
*1206 FILLER_1_54
*1207 FILLER_1_57
*1208 FILLER_1_79
*1209 FILLER_1_8
*1210 FILLER_1_91
*1211 FILLER_20_105
*1212 FILLER_20_112
*1213 FILLER_20_13
*1214 FILLER_20_134
*1215 FILLER_20_141
*1216 FILLER_20_146
*1217 FILLER_20_154
*1218 FILLER_20_171
*1219 FILLER_20_177
*1220 FILLER_20_194
*1221 FILLER_20_197
*1222 FILLER_20_210
*1223 FILLER_20_217
*1224 FILLER_20_229
*1225 FILLER_20_23
*1226 FILLER_20_241
*1227 FILLER_20_249
*1228 FILLER_20_253
*1229 FILLER_20_265
*1230 FILLER_20_27
*1231 FILLER_20_277
*1232 FILLER_20_289
*1233 FILLER_20_29
*1234 FILLER_20_297
*1235 FILLER_20_3
*1236 FILLER_20_41
*1237 FILLER_20_45
*1238 FILLER_20_66
*1239 FILLER_20_78
*1240 FILLER_20_85
*1241 FILLER_20_89
*1242 FILLER_20_9
*1243 FILLER_20_97
*1244 FILLER_21_110
*1245 FILLER_21_113
*1246 FILLER_21_119
*1247 FILLER_21_132
*1248 FILLER_21_145
*1249 FILLER_21_152
*1250 FILLER_21_164
*1251 FILLER_21_169
*1252 FILLER_21_180
*1253 FILLER_21_187
*1254 FILLER_21_193
*1255 FILLER_21_200
*1256 FILLER_21_222
*1257 FILLER_21_225
*1258 FILLER_21_237
*1259 FILLER_21_249
*1260 FILLER_21_25
*1261 FILLER_21_261
*1262 FILLER_21_273
*1263 FILLER_21_279
*1264 FILLER_21_281
*1265 FILLER_21_293
*1266 FILLER_21_3
*1267 FILLER_21_49
*1268 FILLER_21_55
*1269 FILLER_21_57
*1270 FILLER_21_62
*1271 FILLER_21_86
*1272 FILLER_21_92
*1273 FILLER_22_102
*1274 FILLER_22_122
*1275 FILLER_22_128
*1276 FILLER_22_138
*1277 FILLER_22_141
*1278 FILLER_22_16
*1279 FILLER_22_161
*1280 FILLER_22_181
*1281 FILLER_22_193
*1282 FILLER_22_197
*1283 FILLER_22_205
*1284 FILLER_22_212
*1285 FILLER_22_224
*1286 FILLER_22_236
*1287 FILLER_22_248
*1288 FILLER_22_253
*1289 FILLER_22_26
*1290 FILLER_22_265
*1291 FILLER_22_277
*1292 FILLER_22_289
*1293 FILLER_22_29
*1294 FILLER_22_297
*1295 FILLER_22_3
*1296 FILLER_22_35
*1297 FILLER_22_42
*1298 FILLER_22_50
*1299 FILLER_22_55
*1300 FILLER_22_59
*1301 FILLER_22_69
*1302 FILLER_22_8
*1303 FILLER_22_81
*1304 FILLER_22_85
*1305 FILLER_22_91
*1306 FILLER_23_102
*1307 FILLER_23_106
*1308 FILLER_23_110
*1309 FILLER_23_113
*1310 FILLER_23_121
*1311 FILLER_23_127
*1312 FILLER_23_148
*1313 FILLER_23_159
*1314 FILLER_23_167
*1315 FILLER_23_169
*1316 FILLER_23_174
*1317 FILLER_23_181
*1318 FILLER_23_205
*1319 FILLER_23_217
*1320 FILLER_23_223
*1321 FILLER_23_225
*1322 FILLER_23_237
*1323 FILLER_23_249
*1324 FILLER_23_261
*1325 FILLER_23_273
*1326 FILLER_23_279
*1327 FILLER_23_281
*1328 FILLER_23_293
*1329 FILLER_23_3
*1330 FILLER_23_32
*1331 FILLER_23_39
*1332 FILLER_23_47
*1333 FILLER_23_54
*1334 FILLER_23_57
*1335 FILLER_23_8
*1336 FILLER_23_81
*1337 FILLER_24_111
*1338 FILLER_24_12
*1339 FILLER_24_131
*1340 FILLER_24_139
*1341 FILLER_24_141
*1342 FILLER_24_159
*1343 FILLER_24_172
*1344 FILLER_24_192
*1345 FILLER_24_197
*1346 FILLER_24_205
*1347 FILLER_24_213
*1348 FILLER_24_22
*1349 FILLER_24_223
*1350 FILLER_24_230
*1351 FILLER_24_242
*1352 FILLER_24_250
*1353 FILLER_24_253
*1354 FILLER_24_265
*1355 FILLER_24_277
*1356 FILLER_24_289
*1357 FILLER_24_29
*1358 FILLER_24_297
*1359 FILLER_24_3
*1360 FILLER_24_40
*1361 FILLER_24_44
*1362 FILLER_24_65
*1363 FILLER_24_78
*1364 FILLER_24_8
*1365 FILLER_24_85
*1366 FILLER_24_96
*1367 FILLER_25_110
*1368 FILLER_25_113
*1369 FILLER_25_118
*1370 FILLER_25_130
*1371 FILLER_25_142
*1372 FILLER_25_166
*1373 FILLER_25_169
*1374 FILLER_25_186
*1375 FILLER_25_193
*1376 FILLER_25_199
*1377 FILLER_25_205
*1378 FILLER_25_216
*1379 FILLER_25_225
*1380 FILLER_25_237
*1381 FILLER_25_249
*1382 FILLER_25_25
*1383 FILLER_25_261
*1384 FILLER_25_273
*1385 FILLER_25_279
*1386 FILLER_25_281
*1387 FILLER_25_293
*1388 FILLER_25_3
*1389 FILLER_25_33
*1390 FILLER_25_51
*1391 FILLER_25_55
*1392 FILLER_25_57
*1393 FILLER_25_73
*1394 FILLER_25_80
*1395 FILLER_25_93
*1396 FILLER_25_97
*1397 FILLER_26_11
*1398 FILLER_26_114
*1399 FILLER_26_138
*1400 FILLER_26_141
*1401 FILLER_26_159
*1402 FILLER_26_167
*1403 FILLER_26_17
*1404 FILLER_26_172
*1405 FILLER_26_192
*1406 FILLER_26_197
*1407 FILLER_26_206
*1408 FILLER_26_216
*1409 FILLER_26_228
*1410 FILLER_26_240
*1411 FILLER_26_253
*1412 FILLER_26_26
*1413 FILLER_26_265
*1414 FILLER_26_277
*1415 FILLER_26_289
*1416 FILLER_26_29
*1417 FILLER_26_297
*1418 FILLER_26_3
*1419 FILLER_26_39
*1420 FILLER_26_51
*1421 FILLER_26_58
*1422 FILLER_26_62
*1423 FILLER_26_7
*1424 FILLER_26_79
*1425 FILLER_26_83
*1426 FILLER_26_85
*1427 FILLER_26_89
*1428 FILLER_26_94
*1429 FILLER_27_110
*1430 FILLER_27_113
*1431 FILLER_27_134
*1432 FILLER_27_142
*1433 FILLER_27_149
*1434 FILLER_27_15
*1435 FILLER_27_155
*1436 FILLER_27_165
*1437 FILLER_27_169
*1438 FILLER_27_186
*1439 FILLER_27_199
*1440 FILLER_27_219
*1441 FILLER_27_223
*1442 FILLER_27_225
*1443 FILLER_27_237
*1444 FILLER_27_249
*1445 FILLER_27_25
*1446 FILLER_27_261
*1447 FILLER_27_273
*1448 FILLER_27_279
*1449 FILLER_27_281
*1450 FILLER_27_293
*1451 FILLER_27_3
*1452 FILLER_27_34
*1453 FILLER_27_47
*1454 FILLER_27_54
*1455 FILLER_27_57
*1456 FILLER_27_79
*1457 FILLER_27_9
*1458 FILLER_27_99
*1459 FILLER_28_103
*1460 FILLER_28_111
*1461 FILLER_28_115
*1462 FILLER_28_124
*1463 FILLER_28_132
*1464 FILLER_28_141
*1465 FILLER_28_150
*1466 FILLER_28_170
*1467 FILLER_28_194
*1468 FILLER_28_197
*1469 FILLER_28_209
*1470 FILLER_28_215
*1471 FILLER_28_232
*1472 FILLER_28_244
*1473 FILLER_28_25
*1474 FILLER_28_253
*1475 FILLER_28_265
*1476 FILLER_28_277
*1477 FILLER_28_289
*1478 FILLER_28_29
*1479 FILLER_28_297
*1480 FILLER_28_3
*1481 FILLER_28_51
*1482 FILLER_28_66
*1483 FILLER_28_78
*1484 FILLER_28_82
*1485 FILLER_28_85
*1486 FILLER_29_110
*1487 FILLER_29_113
*1488 FILLER_29_120
*1489 FILLER_29_133
*1490 FILLER_29_15
*1491 FILLER_29_153
*1492 FILLER_29_166
*1493 FILLER_29_169
*1494 FILLER_29_180
*1495 FILLER_29_187
*1496 FILLER_29_191
*1497 FILLER_29_196
*1498 FILLER_29_209
*1499 FILLER_29_21
*1500 FILLER_29_218
*1501 FILLER_29_225
*1502 FILLER_29_237
*1503 FILLER_29_249
*1504 FILLER_29_261
*1505 FILLER_29_273
*1506 FILLER_29_279
*1507 FILLER_29_281
*1508 FILLER_29_293
*1509 FILLER_29_3
*1510 FILLER_29_38
*1511 FILLER_29_49
*1512 FILLER_29_55
*1513 FILLER_29_57
*1514 FILLER_29_69
*1515 FILLER_29_86
*1516 FILLER_29_98
*1517 FILLER_2_109
*1518 FILLER_2_121
*1519 FILLER_2_133
*1520 FILLER_2_139
*1521 FILLER_2_141
*1522 FILLER_2_153
*1523 FILLER_2_165
*1524 FILLER_2_177
*1525 FILLER_2_189
*1526 FILLER_2_195
*1527 FILLER_2_197
*1528 FILLER_2_209
*1529 FILLER_2_221
*1530 FILLER_2_233
*1531 FILLER_2_245
*1532 FILLER_2_251
*1533 FILLER_2_253
*1534 FILLER_2_26
*1535 FILLER_2_265
*1536 FILLER_2_277
*1537 FILLER_2_289
*1538 FILLER_2_29
*1539 FILLER_2_297
*1540 FILLER_2_3
*1541 FILLER_2_37
*1542 FILLER_2_47
*1543 FILLER_2_59
*1544 FILLER_2_65
*1545 FILLER_2_82
*1546 FILLER_2_85
*1547 FILLER_2_9
*1548 FILLER_2_97
*1549 FILLER_30_111
*1550 FILLER_30_119
*1551 FILLER_30_137
*1552 FILLER_30_141
*1553 FILLER_30_153
*1554 FILLER_30_159
*1555 FILLER_30_176
*1556 FILLER_30_189
*1557 FILLER_30_195
*1558 FILLER_30_197
*1559 FILLER_30_206
*1560 FILLER_30_214
*1561 FILLER_30_222
*1562 FILLER_30_229
*1563 FILLER_30_241
*1564 FILLER_30_249
*1565 FILLER_30_253