*SPEF "ieee 1481-1999"
*DESIGN "morningjava_top"
*DATE "11:11:11 Fri 11 11, 1111"
*VENDOR "OpenRCX"
*PROGRAM "Parallel Extraction"
*VERSION "1.0"
*DESIGN_FLOW "NAME_SCOPE LOCAL" "PIN_CAP NONE"
*DIVIDER /
*DELIMITER :
*BUS_DELIMITER []
*T_UNIT 1 NS
*C_UNIT 1 PF
*R_UNIT 1 OHM
*L_UNIT 1 HENRY

*NAME_MAP
*1 io_in[0]
*2 io_in[1]
*3 io_in[2]
*4 io_in[3]
*5 io_in[4]
*6 io_in[5]
*7 io_in[6]
*8 io_in[7]
*9 net29
*10 net30
*11 net31
*12 net32
*13 io_out[4]
*14 io_out[5]
*15 net33
*16 io_out[7]
*19 _000_
*20 _001_
*21 _002_
*22 _003_
*23 _004_
*24 _005_
*25 _006_
*26 _007_
*27 _008_
*28 _009_
*29 _010_
*30 _011_
*31 _012_
*32 _013_
*33 _014_
*34 _015_
*35 _016_
*36 _017_
*37 _018_
*38 _019_
*39 _020_
*40 _021_
*41 _022_
*42 _023_
*43 _024_
*44 _025_
*45 _026_
*46 _027_
*47 _028_
*48 _029_
*49 _030_
*50 _031_
*51 _032_
*52 _033_
*53 _034_
*54 _035_
*55 _036_
*56 _037_
*57 _038_
*58 _039_
*59 _040_
*60 _041_
*61 _042_
*62 _043_
*63 _044_
*64 _045_
*65 _046_
*66 _047_
*67 _048_
*68 _049_
*69 _050_
*70 _051_
*71 _052_
*72 _053_
*73 _054_
*74 _055_
*75 _056_
*76 _057_
*77 _058_
*78 _059_
*79 _060_
*80 _061_
*81 _062_
*82 _063_
*83 _064_
*84 _065_
*85 _066_
*86 _067_
*87 _068_
*88 _069_
*89 _070_
*90 _071_
*91 _072_
*92 _073_
*93 _074_
*94 _075_
*95 _076_
*96 _077_
*97 _078_
*98 _079_
*99 _080_
*100 _081_
*101 _082_
*102 _083_
*103 _084_
*104 _085_
*105 _086_
*106 _087_
*107 _088_
*108 _089_
*109 _090_
*110 _091_
*111 _092_
*112 _093_
*113 _094_
*114 _095_
*115 _096_
*116 _097_
*117 _098_
*118 _099_
*119 _100_
*120 _101_
*121 _102_
*122 _103_
*123 _104_
*124 _105_
*125 _106_
*126 _107_
*127 _108_
*128 _109_
*129 _110_
*130 _111_
*131 _112_
*132 _113_
*133 _114_
*134 _115_
*135 _116_
*136 _117_
*137 _118_
*138 _119_
*139 _120_
*140 _121_
*141 _122_
*142 _123_
*143 _124_
*144 _125_
*145 _126_
*146 _127_
*147 _128_
*148 _129_
*149 _130_
*150 _131_
*151 _132_
*152 _133_
*153 _134_
*154 _135_
*155 _136_
*156 _137_
*157 _138_
*158 _139_
*159 _140_
*160 _141_
*161 _142_
*162 _143_
*163 _144_
*164 _145_
*165 _146_
*166 _147_
*167 _148_
*168 _149_
*169 _150_
*170 _151_
*171 _152_
*172 _153_
*173 _154_
*174 _155_
*175 _156_
*176 _157_
*177 _158_
*178 _159_
*179 _160_
*180 _161_
*181 _162_
*182 _163_
*183 _164_
*184 _165_
*185 _166_
*186 _167_
*187 _168_
*188 _169_
*189 _170_
*190 _171_
*191 _172_
*192 _173_
*193 _174_
*194 _175_
*195 _176_
*196 _177_
*197 _178_
*198 _179_
*199 _180_
*200 _181_
*201 _182_
*202 _183_
*203 _184_
*204 _185_
*205 _186_
*206 _187_
*207 _188_
*208 _189_
*209 _190_
*210 _191_
*211 _192_
*212 _193_
*213 _194_
*214 _195_
*215 _196_
*216 _197_
*217 _198_
*218 _199_
*219 _200_
*220 _201_
*221 _202_
*222 _203_
*223 _204_
*224 _205_
*225 _206_
*226 _207_
*227 _208_
*228 _209_
*229 _210_
*230 _211_
*231 _212_
*232 _213_
*233 _214_
*234 _215_
*235 _216_
*236 _217_
*237 _218_
*238 _219_
*239 _220_
*240 _221_
*241 _222_
*242 _223_
*243 _224_
*244 _225_
*245 _226_
*246 _227_
*247 _228_
*248 _229_
*249 _230_
*250 _231_
*251 _232_
*252 _233_
*253 _234_
*254 _235_
*255 _236_
*256 _237_
*257 _238_
*258 _239_
*259 _240_
*260 _241_
*261 _242_
*262 _243_
*263 _244_
*264 _245_
*265 _246_
*266 _247_
*267 _248_
*268 _249_
*269 _250_
*270 _251_
*271 _252_
*272 _253_
*273 _254_
*274 _255_
*275 _256_
*276 _257_
*277 _258_
*278 _259_
*279 _260_
*280 _261_
*281 _262_
*282 _263_
*283 _264_
*284 _265_
*285 _266_
*286 _267_
*287 _268_
*288 _269_
*289 _270_
*290 _271_
*291 _272_
*292 _273_
*293 _274_
*294 clk_gen_inst\.count\[0\]
*295 clk_gen_inst\.count\[1\]
*296 clk_gen_inst\.count\[2\]
*297 clk_gen_inst\.count\[3\]
*298 clk_gen_inst\.rtck
*299 clk_gen_inst\.rx_meta
*300 clk_gen_inst\.tdi
*301 clk_gen_inst\.tdi_delay
*302 controller_inst\.tdo
*303 net1
*304 net10
*305 net11
*306 net12
*307 net13
*308 net14
*309 net15
*310 net16
*311 net17
*312 net18
*313 net19
*314 net2
*315 net20
*316 net21
*317 net22
*318 net23
*319 net24
*320 net25
*321 net26
*322 net27
*323 net28
*324 net3
*325 net4
*326 net5
*327 net6
*328 net7
*329 net8
*330 net9
*331 tap_gen\[1\]\.tap_inst\.active
*332 tap_gen\[1\]\.tap_inst\.bit_count\[0\]
*333 tap_gen\[1\]\.tap_inst\.bit_count\[1\]
*334 tap_gen\[1\]\.tap_inst\.bit_count\[2\]
*335 tap_gen\[1\]\.tap_inst\.bit_count\[3\]
*336 tap_gen\[1\]\.tap_inst\.inbound\[0\]
*337 tap_gen\[1\]\.tap_inst\.inbound\[1\]
*338 tap_gen\[1\]\.tap_inst\.inbound\[2\]
*339 tap_gen\[1\]\.tap_inst\.inbound\[3\]
*340 tap_gen\[1\]\.tap_inst\.inbound\[4\]
*341 tap_gen\[1\]\.tap_inst\.inbound\[5\]
*342 tap_gen\[1\]\.tap_inst\.inbound\[6\]
*343 tap_gen\[1\]\.tap_inst\.inbound\[7\]
*344 tap_gen\[1\]\.tap_inst\.q_tdo
*345 tap_gen\[1\]\.tap_inst\.shift\[0\]
*346 tap_gen\[1\]\.tap_inst\.shift\[1\]
*347 tap_gen\[1\]\.tap_inst\.shift\[2\]
*348 tap_gen\[1\]\.tap_inst\.shift\[3\]
*349 tap_gen\[1\]\.tap_inst\.shift\[4\]
*350 tap_gen\[1\]\.tap_inst\.shift\[5\]
*351 tap_gen\[1\]\.tap_inst\.shift\[6\]
*352 tap_gen\[1\]\.tap_inst\.shift\[7\]
*353 tap_gen\[1\]\.tap_inst\.shift\[8\]
*354 tap_gen\[1\]\.tap_inst\.shift\[9\]
*355 tap_gen\[2\]\.tap_inst\.active
*356 tap_gen\[2\]\.tap_inst\.bit_count\[0\]
*357 tap_gen\[2\]\.tap_inst\.bit_count\[1\]
*358 tap_gen\[2\]\.tap_inst\.bit_count\[2\]
*359 tap_gen\[2\]\.tap_inst\.bit_count\[3\]
*360 tap_gen\[2\]\.tap_inst\.inbound\[0\]
*361 tap_gen\[2\]\.tap_inst\.inbound\[1\]
*362 tap_gen\[2\]\.tap_inst\.inbound\[2\]
*363 tap_gen\[2\]\.tap_inst\.inbound\[3\]
*364 tap_gen\[2\]\.tap_inst\.inbound\[4\]
*365 tap_gen\[2\]\.tap_inst\.inbound\[5\]
*366 tap_gen\[2\]\.tap_inst\.inbound\[6\]
*367 tap_gen\[2\]\.tap_inst\.inbound\[7\]
*368 tap_gen\[2\]\.tap_inst\.q_tdo
*369 tap_gen\[2\]\.tap_inst\.shift\[0\]
*370 tap_gen\[2\]\.tap_inst\.shift\[1\]
*371 tap_gen\[2\]\.tap_inst\.shift\[2\]
*372 tap_gen\[2\]\.tap_inst\.shift\[3\]
*373 tap_gen\[2\]\.tap_inst\.shift\[4\]
*374 tap_gen\[2\]\.tap_inst\.shift\[5\]
*375 tap_gen\[2\]\.tap_inst\.shift\[6\]
*376 tap_gen\[2\]\.tap_inst\.shift\[7\]
*377 tap_gen\[2\]\.tap_inst\.shift\[8\]
*378 tap_gen\[2\]\.tap_inst\.shift\[9\]
*379 tap_gen\[3\]\.tap_inst\.active
*380 tap_gen\[3\]\.tap_inst\.bit_count\[0\]
*381 tap_gen\[3\]\.tap_inst\.bit_count\[1\]
*382 tap_gen\[3\]\.tap_inst\.bit_count\[2\]
*383 tap_gen\[3\]\.tap_inst\.bit_count\[3\]
*384 tap_gen\[3\]\.tap_inst\.inbound\[0\]
*385 tap_gen\[3\]\.tap_inst\.inbound\[1\]
*386 tap_gen\[3\]\.tap_inst\.inbound\[2\]
*387 tap_gen\[3\]\.tap_inst\.inbound\[3\]
*388 tap_gen\[3\]\.tap_inst\.inbound\[4\]
*389 tap_gen\[3\]\.tap_inst\.inbound\[5\]
*390 tap_gen\[3\]\.tap_inst\.inbound\[6\]
*391 tap_gen\[3\]\.tap_inst\.inbound\[7\]
*392 tap_gen\[3\]\.tap_inst\.q_tdo
*393 tap_gen\[3\]\.tap_inst\.shift\[0\]
*394 tap_gen\[3\]\.tap_inst\.shift\[1\]
*395 tap_gen\[3\]\.tap_inst\.shift\[2\]
*396 tap_gen\[3\]\.tap_inst\.shift\[3\]
*397 tap_gen\[3\]\.tap_inst\.shift\[4\]
*398 tap_gen\[3\]\.tap_inst\.shift\[5\]
*399 tap_gen\[3\]\.tap_inst\.shift\[6\]
*400 tap_gen\[3\]\.tap_inst\.shift\[7\]
*401 tap_gen\[3\]\.tap_inst\.shift\[8\]
*402 tap_gen\[3\]\.tap_inst\.shift\[9\]
*403 tap_gen\[4\]\.tap_inst\.active
*404 tap_gen\[4\]\.tap_inst\.bit_count\[0\]
*405 tap_gen\[4\]\.tap_inst\.bit_count\[1\]
*406 tap_gen\[4\]\.tap_inst\.bit_count\[2\]
*407 tap_gen\[4\]\.tap_inst\.bit_count\[3\]
*408 tap_gen\[4\]\.tap_inst\.inbound\[0\]
*409 tap_gen\[4\]\.tap_inst\.inbound\[1\]
*410 tap_gen\[4\]\.tap_inst\.inbound\[2\]
*411 tap_gen\[4\]\.tap_inst\.inbound\[3\]
*412 tap_gen\[4\]\.tap_inst\.inbound\[4\]
*413 tap_gen\[4\]\.tap_inst\.inbound\[5\]
*414 tap_gen\[4\]\.tap_inst\.inbound\[6\]
*415 tap_gen\[4\]\.tap_inst\.inbound\[7\]
*416 tap_gen\[4\]\.tap_inst\.q_tdo
*417 tap_gen\[4\]\.tap_inst\.shift\[0\]
*418 tap_gen\[4\]\.tap_inst\.shift\[1\]
*419 tap_gen\[4\]\.tap_inst\.shift\[2\]
*420 tap_gen\[4\]\.tap_inst\.shift\[3\]
*421 tap_gen\[4\]\.tap_inst\.shift\[4\]
*422 tap_gen\[4\]\.tap_inst\.shift\[5\]
*423 tap_gen\[4\]\.tap_inst\.shift\[6\]
*424 tap_gen\[4\]\.tap_inst\.shift\[7\]
*425 tap_gen\[4\]\.tap_inst\.shift\[8\]
*426 tap_gen\[4\]\.tap_inst\.shift\[9\]
*427 tap_gen\[5\]\.tap_inst\.active
*428 tap_gen\[5\]\.tap_inst\.bit_count\[0\]
*429 tap_gen\[5\]\.tap_inst\.bit_count\[1\]
*430 tap_gen\[5\]\.tap_inst\.bit_count\[2\]
*431 tap_gen\[5\]\.tap_inst\.bit_count\[3\]
*432 tap_gen\[5\]\.tap_inst\.inbound\[0\]
*433 tap_gen\[5\]\.tap_inst\.inbound\[1\]
*434 tap_gen\[5\]\.tap_inst\.inbound\[2\]
*435 tap_gen\[5\]\.tap_inst\.inbound\[3\]
*436 tap_gen\[5\]\.tap_inst\.inbound\[4\]
*437 tap_gen\[5\]\.tap_inst\.inbound\[5\]
*438 tap_gen\[5\]\.tap_inst\.inbound\[6\]
*439 tap_gen\[5\]\.tap_inst\.inbound\[7\]
*440 tap_gen\[5\]\.tap_inst\.q_tdo
*441 tap_gen\[5\]\.tap_inst\.shift\[0\]
*442 tap_gen\[5\]\.tap_inst\.shift\[1\]
*443 tap_gen\[5\]\.tap_inst\.shift\[2\]
*444 tap_gen\[5\]\.tap_inst\.shift\[3\]
*445 tap_gen\[5\]\.tap_inst\.shift\[4\]
*446 tap_gen\[5\]\.tap_inst\.shift\[5\]
*447 tap_gen\[5\]\.tap_inst\.shift\[6\]
*448 tap_gen\[5\]\.tap_inst\.shift\[7\]
*449 tap_gen\[5\]\.tap_inst\.shift\[8\]
*450 tap_gen\[5\]\.tap_inst\.shift\[9\]
*451 FILLER_0_109
*452 FILLER_0_113
*453 FILLER_0_125
*454 FILLER_0_137
*455 FILLER_0_141
*456 FILLER_0_15
*457 FILLER_0_153
*458 FILLER_0_165
*459 FILLER_0_169
*460 FILLER_0_181
*461 FILLER_0_193
*462 FILLER_0_197
*463 FILLER_0_209
*464 FILLER_0_221
*465 FILLER_0_225
*466 FILLER_0_237
*467 FILLER_0_249
*468 FILLER_0_253
*469 FILLER_0_265
*470 FILLER_0_27
*471 FILLER_0_277
*472 FILLER_0_281
*473 FILLER_0_29
*474 FILLER_0_293
*475 FILLER_0_3
*476 FILLER_0_41
*477 FILLER_0_53
*478 FILLER_0_57
*479 FILLER_0_69
*480 FILLER_0_81
*481 FILLER_0_85
*482 FILLER_0_97
*483 FILLER_10_109
*484 FILLER_10_121
*485 FILLER_10_133
*486 FILLER_10_139
*487 FILLER_10_141
*488 FILLER_10_15
*489 FILLER_10_153
*490 FILLER_10_165
*491 FILLER_10_177
*492 FILLER_10_189
*493 FILLER_10_195
*494 FILLER_10_197
*495 FILLER_10_209
*496 FILLER_10_221
*497 FILLER_10_233
*498 FILLER_10_245
*499 FILLER_10_251
*500 FILLER_10_253
*501 FILLER_10_265
*502 FILLER_10_27
*503 FILLER_10_277
*504 FILLER_10_289
*505 FILLER_10_29
*506 FILLER_10_297
*507 FILLER_10_3
*508 FILLER_10_41
*509 FILLER_10_53
*510 FILLER_10_65
*511 FILLER_10_77
*512 FILLER_10_83
*513 FILLER_10_85
*514 FILLER_10_97
*515 FILLER_11_105
*516 FILLER_11_111
*517 FILLER_11_113
*518 FILLER_11_125
*519 FILLER_11_137
*520 FILLER_11_149
*521 FILLER_11_15
*522 FILLER_11_161
*523 FILLER_11_167
*524 FILLER_11_169
*525 FILLER_11_181
*526 FILLER_11_193
*527 FILLER_11_205
*528 FILLER_11_217
*529 FILLER_11_223
*530 FILLER_11_225
*531 FILLER_11_237
*532 FILLER_11_249
*533 FILLER_11_261
*534 FILLER_11_27
*535 FILLER_11_273
*536 FILLER_11_279
*537 FILLER_11_281
*538 FILLER_11_293
*539 FILLER_11_3
*540 FILLER_11_39
*541 FILLER_11_51
*542 FILLER_11_55
*543 FILLER_11_57
*544 FILLER_11_69
*545 FILLER_11_81
*546 FILLER_11_93
*547 FILLER_12_109
*548 FILLER_12_121
*549 FILLER_12_133
*550 FILLER_12_139
*551 FILLER_12_141
*552 FILLER_12_15
*553 FILLER_12_153
*554 FILLER_12_165
*555 FILLER_12_177
*556 FILLER_12_189
*557 FILLER_12_195
*558 FILLER_12_197
*559 FILLER_12_209
*560 FILLER_12_221
*561 FILLER_12_233
*562 FILLER_12_245
*563 FILLER_12_251
*564 FILLER_12_253
*565 FILLER_12_265
*566 FILLER_12_27
*567 FILLER_12_277
*568 FILLER_12_289
*569 FILLER_12_29
*570 FILLER_12_297
*571 FILLER_12_3
*572 FILLER_12_41
*573 FILLER_12_53
*574 FILLER_12_65
*575 FILLER_12_77
*576 FILLER_12_83
*577 FILLER_12_85
*578 FILLER_12_97
*579 FILLER_13_10
*580 FILLER_13_105
*581 FILLER_13_111
*582 FILLER_13_113
*583 FILLER_13_125
*584 FILLER_13_137
*585 FILLER_13_149
*586 FILLER_13_161
*587 FILLER_13_167
*588 FILLER_13_169
*589 FILLER_13_181
*590 FILLER_13_193
*591 FILLER_13_205
*592 FILLER_13_217
*593 FILLER_13_22
*594 FILLER_13_223
*595 FILLER_13_225
*596 FILLER_13_237
*597 FILLER_13_249
*598 FILLER_13_261
*599 FILLER_13_273
*600 FILLER_13_279
*601 FILLER_13_281
*602 FILLER_13_293
*603 FILLER_13_3
*604 FILLER_13_34
*605 FILLER_13_46
*606 FILLER_13_54
*607 FILLER_13_57
*608 FILLER_13_69
*609 FILLER_13_81
*610 FILLER_13_93
*611 FILLER_14_109
*612 FILLER_14_124
*613 FILLER_14_136
*614 FILLER_14_141
*615 FILLER_14_153
*616 FILLER_14_165
*617 FILLER_14_177
*618 FILLER_14_189
*619 FILLER_14_195
*620 FILLER_14_197
*621 FILLER_14_209
*622 FILLER_14_21
*623 FILLER_14_221
*624 FILLER_14_233
*625 FILLER_14_245
*626 FILLER_14_251
*627 FILLER_14_253
*628 FILLER_14_265
*629 FILLER_14_27
*630 FILLER_14_277
*631 FILLER_14_289
*632 FILLER_14_29
*633 FILLER_14_297
*634 FILLER_14_3
*635 FILLER_14_41
*636 FILLER_14_53
*637 FILLER_14_65
*638 FILLER_14_82
*639 FILLER_14_85
*640 FILLER_14_97
*641 FILLER_15_103
*642 FILLER_15_110
*643 FILLER_15_113
*644 FILLER_15_135
*645 FILLER_15_15
*646 FILLER_15_155
*647 FILLER_15_167
*648 FILLER_15_169
*649 FILLER_15_181
*650 FILLER_15_193
*651 FILLER_15_205
*652 FILLER_15_217
*653 FILLER_15_223
*654 FILLER_15_225
*655 FILLER_15_237
*656 FILLER_15_249
*657 FILLER_15_261
*658 FILLER_15_273
*659 FILLER_15_279
*660 FILLER_15_281
*661 FILLER_15_293
*662 FILLER_15_3
*663 FILLER_15_32
*664 FILLER_15_44
*665 FILLER_15_57
*666 FILLER_15_83
*667 FILLER_15_9
*668 FILLER_16_113
*669 FILLER_16_126
*670 FILLER_16_138
*671 FILLER_16_141
*672 FILLER_16_153
*673 FILLER_16_165
*674 FILLER_16_17
*675 FILLER_16_177
*676 FILLER_16_189
*677 FILLER_16_195
*678 FILLER_16_197
*679 FILLER_16_209
*680 FILLER_16_221
*681 FILLER_16_233
*682 FILLER_16_245
*683 FILLER_16_25
*684 FILLER_16_251
*685 FILLER_16_253
*686 FILLER_16_265
*687 FILLER_16_277
*688 FILLER_16_289
*689 FILLER_16_29
*690 FILLER_16_297
*691 FILLER_16_3
*692 FILLER_16_35
*693 FILLER_16_47
*694 FILLER_16_62
*695 FILLER_16_66
*696 FILLER_16_70
*697 FILLER_16_82
*698 FILLER_16_85
*699 FILLER_17_10
*700 FILLER_17_101
*701 FILLER_17_109
*702 FILLER_17_113
*703 FILLER_17_123
*704 FILLER_17_151
*705 FILLER_17_163
*706 FILLER_17_167
*707 FILLER_17_169
*708 FILLER_17_17
*709 FILLER_17_181
*710 FILLER_17_193
*711 FILLER_17_205
*712 FILLER_17_217
*713 FILLER_17_223
*714 FILLER_17_225
*715 FILLER_17_237
*716 FILLER_17_249
*717 FILLER_17_25
*718 FILLER_17_261
*719 FILLER_17_273
*720 FILLER_17_279
*721 FILLER_17_281
*722 FILLER_17_293
*723 FILLER_17_3
*724 FILLER_17_33
*725 FILLER_17_51
*726 FILLER_17_55
*727 FILLER_17_57
*728 FILLER_17_79
*729 FILLER_17_85
*730 FILLER_17_94
*731 FILLER_18_101
*732 FILLER_18_118
*733 FILLER_18_124
*734 FILLER_18_134
*735 FILLER_18_141
*736 FILLER_18_146
*737 FILLER_18_158
*738 FILLER_18_170
*739 FILLER_18_182
*740 FILLER_18_194
*741 FILLER_18_197
*742 FILLER_18_209
*743 FILLER_18_21
*744 FILLER_18_221
*745 FILLER_18_233
*746 FILLER_18_245
*747 FILLER_18_251
*748 FILLER_18_253
*749 FILLER_18_265
*750 FILLER_18_27
*751 FILLER_18_277
*752 FILLER_18_289
*753 FILLER_18_29
*754 FILLER_18_297
*755 FILLER_18_3
*756 FILLER_18_36
*757 FILLER_18_48
*758 FILLER_18_56
*759 FILLER_18_64
*760 FILLER_18_82
*761 FILLER_18_85
*762 FILLER_18_95
*763 FILLER_19_100
*764 FILLER_19_108
*765 FILLER_19_113
*766 FILLER_19_118
*767 FILLER_19_122
*768 FILLER_19_13
*769 FILLER_19_139
*770 FILLER_19_151
*771 FILLER_19_163
*772 FILLER_19_167
*773 FILLER_19_169
*774 FILLER_19_17
*775 FILLER_19_181
*776 FILLER_19_193
*777 FILLER_19_205
*778 FILLER_19_217
*779 FILLER_19_223
*780 FILLER_19_225
*781 FILLER_19_237
*782 FILLER_19_249
*783 FILLER_19_261
*784 FILLER_19_273
*785 FILLER_19_279
*786 FILLER_19_281
*787 FILLER_19_293
*788 FILLER_19_3
*789 FILLER_19_34
*790 FILLER_19_42
*791 FILLER_19_50
*792 FILLER_19_57
*793 FILLER_19_64
*794 FILLER_19_70
*795 FILLER_19_80
*796 FILLER_1_105
*797 FILLER_1_111
*798 FILLER_1_113
*799 FILLER_1_125
*800 FILLER_1_137
*801 FILLER_1_149
*802 FILLER_1_15
*803 FILLER_1_161
*804 FILLER_1_167
*805 FILLER_1_169
*806 FILLER_1_181
*807 FILLER_1_193
*808 FILLER_1_205
*809 FILLER_1_217
*810 FILLER_1_223
*811 FILLER_1_225
*812 FILLER_1_237
*813 FILLER_1_249
*814 FILLER_1_261
*815 FILLER_1_27
*816 FILLER_1_273
*817 FILLER_1_279
*818 FILLER_1_281
*819 FILLER_1_293
*820 FILLER_1_3
*821 FILLER_1_39
*822 FILLER_1_51
*823 FILLER_1_55
*824 FILLER_1_57
*825 FILLER_1_69
*826 FILLER_1_81
*827 FILLER_1_93
*828 FILLER_20_100
*829 FILLER_20_108
*830 FILLER_20_120
*831 FILLER_20_132
*832 FILLER_20_141
*833 FILLER_20_147
*834 FILLER_20_15
*835 FILLER_20_156
*836 FILLER_20_168
*837 FILLER_20_180
*838 FILLER_20_19
*839 FILLER_20_192
*840 FILLER_20_197
*841 FILLER_20_209
*842 FILLER_20_221
*843 FILLER_20_233
*844 FILLER_20_24
*845 FILLER_20_245
*846 FILLER_20_251
*847 FILLER_20_253
*848 FILLER_20_265
*849 FILLER_20_277
*850 FILLER_20_289
*851 FILLER_20_29
*852 FILLER_20_297
*853 FILLER_20_3
*854 FILLER_20_36
*855 FILLER_20_46
*856 FILLER_20_50
*857 FILLER_20_67
*858 FILLER_20_82
*859 FILLER_20_85
*860 FILLER_20_91
*861 FILLER_21_107
*862 FILLER_21_111
*863 FILLER_21_113
*864 FILLER_21_118
*865 FILLER_21_138
*866 FILLER_21_158
*867 FILLER_21_166
*868 FILLER_21_169
*869 FILLER_21_181
*870 FILLER_21_193
*871 FILLER_21_205
*872 FILLER_21_21
*873 FILLER_21_217
*874 FILLER_21_223
*875 FILLER_21_225
*876 FILLER_21_237
*877 FILLER_21_249
*878 FILLER_21_261
*879 FILLER_21_273
*880 FILLER_21_279
*881 FILLER_21_281
*882 FILLER_21_29
*883 FILLER_21_293
*884 FILLER_21_3
*885 FILLER_21_34
*886 FILLER_21_43
*887 FILLER_21_52
*888 FILLER_21_57
*889 FILLER_21_83
*890 FILLER_22_101
*891 FILLER_22_125
*892 FILLER_22_137
*893 FILLER_22_141
*894 FILLER_22_149
*895 FILLER_22_157
*896 FILLER_22_165
*897 FILLER_22_177
*898 FILLER_22_189
*899 FILLER_22_195
*900 FILLER_22_197
*901 FILLER_22_209
*902 FILLER_22_221
*903 FILLER_22_233
*904 FILLER_22_245
*905 FILLER_22_251
*906 FILLER_22_253
*907 FILLER_22_26
*908 FILLER_22_265
*909 FILLER_22_277
*910 FILLER_22_289
*911 FILLER_22_29
*912 FILLER_22_297
*913 FILLER_22_3
*914 FILLER_22_47
*915 FILLER_22_69
*916 FILLER_22_73
*917 FILLER_22_82
*918 FILLER_22_85
*919 FILLER_22_9
*920 FILLER_22_91
*921 FILLER_23_11
*922 FILLER_23_111
*923 FILLER_23_113
*924 FILLER_23_126
*925 FILLER_23_138
*926 FILLER_23_142
*927 FILLER_23_152
*928 FILLER_23_165
*929 FILLER_23_169
*930 FILLER_23_174
*931 FILLER_23_186
*932 FILLER_23_19
*933 FILLER_23_198
*934 FILLER_23_210
*935 FILLER_23_222
*936 FILLER_23_225
*937 FILLER_23_237
*938 FILLER_23_249
*939 FILLER_23_261
*940 FILLER_23_27
*941 FILLER_23_273
*942 FILLER_23_279
*943 FILLER_23_281
*944 FILLER_23_293
*945 FILLER_23_3
*946 FILLER_23_41
*947 FILLER_23_54
*948 FILLER_23_57
*949 FILLER_23_62
*950 FILLER_23_68
*951 FILLER_23_7
*952 FILLER_23_72
*953 FILLER_23_92
*954 FILLER_23_99
*955 FILLER_24_101
*956 FILLER_24_107
*957 FILLER_24_115
*958 FILLER_24_119
*959 FILLER_24_129
*960 FILLER_24_138
*961 FILLER_24_141
*962 FILLER_24_159
*963 FILLER_24_179
*964 FILLER_24_191
*965 FILLER_24_195
*966 FILLER_24_197
*967 FILLER_24_209
*968 FILLER_24_221
*969 FILLER_24_233
*970 FILLER_24_245
*971 FILLER_24_251
*972 FILLER_24_253
*973 FILLER_24_26
*974 FILLER_24_265
*975 FILLER_24_277
*976 FILLER_24_289
*977 FILLER_24_29
*978 FILLER_24_297
*979 FILLER_24_3
*980 FILLER_24_48
*981 FILLER_24_55
*982 FILLER_24_59
*983 FILLER_24_65
*984 FILLER_24_75
*985 FILLER_24_82
*986 FILLER_24_85
*987 FILLER_24_9
*988 FILLER_24_93
*989 FILLER_25_107
*990 FILLER_25_111
*991 FILLER_25_113
*992 FILLER_25_119
*993 FILLER_25_123
*994 FILLER_25_13
*995 FILLER_25_140
*996 FILLER_25_146
*997 FILLER_25_156
*998 FILLER_25_165
*999 FILLER_25_169
*1000 FILLER_25_17
*1001 FILLER_25_181
*1002 FILLER_25_193
*1003 FILLER_25_205
*1004 FILLER_25_217
*1005 FILLER_25_223
*1006 FILLER_25_225
*1007 FILLER_25_237
*1008 FILLER_25_249
*1009 FILLER_25_261
*1010 FILLER_25_273
*1011 FILLER_25_279
*1012 FILLER_25_281
*1013 FILLER_25_293
*1014 FILLER_25_3
*1015 FILLER_25_37
*1016 FILLER_25_46
*1017 FILLER_25_54
*1018 FILLER_25_57
*1019 FILLER_25_69
*1020 FILLER_25_9
*1021 FILLER_25_94
*1022 FILLER_26_105
*1023 FILLER_26_129
*1024 FILLER_26_136
*1025 FILLER_26_141
*1026 FILLER_26_169
*1027 FILLER_26_181
*1028 FILLER_26_193
*1029 FILLER_26_197
*1030 FILLER_26_209
*1031 FILLER_26_21
*1032 FILLER_26_221
*1033 FILLER_26_233
*1034 FILLER_26_245
*1035 FILLER_26_251
*1036 FILLER_26_253
*1037 FILLER_26_265
*1038 FILLER_26_27
*1039 FILLER_26_277
*1040 FILLER_26_289
*1041 FILLER_26_29
*1042 FILLER_26_297
*1043 FILLER_26_3
*1044 FILLER_26_37
*1045 FILLER_26_41
*1046 FILLER_26_49
*1047 FILLER_26_74
*1048 FILLER_26_82
*1049 FILLER_26_85
*1050 FILLER_26_95
*1051 FILLER_27_105
*1052 FILLER_27_111
*1053 FILLER_27_113
*1054 FILLER_27_127
*1055 FILLER_27_131
*1056 FILLER_27_152
*1057 FILLER_27_159
*1058 FILLER_27_167
*1059 FILLER_27_169
*1060 FILLER_27_181
*1061 FILLER_27_193
*1062 FILLER_27_205
*1063 FILLER_27_217
*1064 FILLER_27_223
*1065 FILLER_27_225
*1066 FILLER_27_237
*1067 FILLER_27_249
*1068 FILLER_27_25
*1069 FILLER_27_261
*1070 FILLER_27_273
*1071 FILLER_27_279
*1072 FILLER_27_281
*1073 FILLER_27_29
*1074 FILLER_27_293
*1075 FILLER_27_3
*1076 FILLER_27_33
*1077 FILLER_27_53
*1078 FILLER_27_57
*1079 FILLER_27_71
*1080 FILLER_27_81
*1081 FILLER_28_101
*1082 FILLER_28_112
*1083 FILLER_28_125
*1084 FILLER_28_13
*1085 FILLER_28_136
*1086 FILLER_28_141
*1087 FILLER_28_146
*1088 FILLER_28_158
*1089 FILLER_28_170
*1090 FILLER_28_182
*1091 FILLER_28_194
*1092 FILLER_28_197
*1093 FILLER_28_209
*1094 FILLER_28_221
*1095 FILLER_28_233
*1096 FILLER_28_245
*1097 FILLER_28_251
*1098 FILLER_28_253
*1099 FILLER_28_26
*1100 FILLER_28_265
*1101 FILLER_28_277
*1102 FILLER_28_289
*1103 FILLER_28_29
*1104 FILLER_28_297
*1105 FILLER_28_3
*1106 FILLER_28_35
*1107 FILLER_28_47
*1108 FILLER_28_53
*1109 FILLER_28_60
*1110 FILLER_28_70
*1111 FILLER_28_82
*1112 FILLER_28_85
*1113 FILLER_28_93
*1114 FILLER_29_105
*1115 FILLER_29_111
*1116 FILLER_29_113
*1117 FILLER_29_135
*1118 FILLER_29_152
*1119 FILLER_29_164
*1120 FILLER_29_169
*1121 FILLER_29_181
*1122 FILLER_29_193
*1123 FILLER_29_205
*1124 FILLER_29_217
*1125 FILLER_29_223
*1126 FILLER_29_225
*1127 FILLER_29_237
*1128 FILLER_29_249
*1129 FILLER_29_261
*1130 FILLER_29_273
*1131 FILLER_29_279
*1132 FILLER_29_281
*1133 FILLER_29_293
*1134 FILLER_29_3
*1135 FILLER_29_31
*1136 FILLER_29_39
*1137 FILLER_29_49
*1138 FILLER_29_55
*1139 FILLER_29_57
*1140 FILLER_29_68
*1141 FILLER_29_76
*1142 FILLER_29_85
*1143 FILLER_29_9
*1144 FILLER_29_97
*1145 FILLER_2_109
*1146 FILLER_2_121
*1147 FILLER_2_133
*1148 FILLER_2_139
*1149 FILLER_2_141
*1150 FILLER_2_15
*1151 FILLER_2_153
*1152 FILLER_2_165
*1153 FILLER_2_177
*1154 FILLER_2_189
*1155 FILLER_2_195
*1156 FILLER_2_197
*1157 FILLER_2_209
*1158 FILLER_2_221
*1159 FILLER_2_233
*1160 FILLER_2_245
*1161 FILLER_2_251
*1162 FILLER_2_253
*1163 FILLER_2_265
*1164 FILLER_2_27
*1165 FILLER_2_277
*1166 FILLER_2_289
*1167 FILLER_2_29
*1168 FILLER_2_297
*1169 FILLER_2_3
*1170 FILLER_2_41
*1171 FILLER_2_53
*1172 FILLER_2_65
*1173 FILLER_2_77
*1174 FILLER_2_83
*1175 FILLER_2_85
*1176 FILLER_2_97
*1177 FILLER_30_108
*1178 FILLER_30_116
*1179 FILLER_30_138
*1180 FILLER_30_141
*1181 FILLER_30_146
*1182 FILLER_30_168
*1183 FILLER_30_180
*1184 FILLER_30_192
*1185 FILLER_30_197
*1186 FILLER_30_209
*1187 FILLER_30_221
*1188 FILLER_30_233
*1189 FILLER_30_245
*1190 FILLER_30_25
*1191 FILLER_30_251
*1192 FILLER_30_253
*1193 FILLER_30_265
*1194 FILLER_30_277
*1195 FILLER_30_289
*1196 FILLER_30_29
*1197 FILLER_30_297
*1198 FILLER_30_3
*1199 FILLER_30_51
*1200 FILLER_30_59
*1201 FILLER_30_76
*1202 FILLER_30_85
*1203 FILLER_31_107
*1204 FILLER_31_111
*1205 FILLER_31_113
*1206 FILLER_31_123
*1207 FILLER_31_127
*1208 FILLER_31_137
*1209 FILLER_31_14
*1210 FILLER_31_157
*1211 FILLER_31_165
*1212 FILLER_31_169
*1213 FILLER_31_181
*1214 FILLER_31_193
*1215 FILLER_31_205
*1216 FILLER_31_217
*1217 FILLER_31_223
*1218 FILLER_31_225
*1219 FILLER_31_237
*1220 FILLER_31_24
*1221 FILLER_31_249
*1222 FILLER_31_261
*1223 FILLER_31_273
*1224 FILLER_31_279
*1225 FILLER_31_281
*1226 FILLER_31_293
*1227 FILLER_31_3
*1228 FILLER_31_36
*1229 FILLER_31_52
*1230 FILLER_31_57
*1231 FILLER_31_61
*1232 FILLER_31_70
*1233 FILLER_31_79
*1234 FILLER_31_8
*1235 FILLER_31_87
*1236 FILLER_31_94
*1237 FILLER_32_101
*1238 FILLER_32_121
*1239 FILLER_32_129
*1240 FILLER_32_138
*1241 FILLER_32_141
*1242 FILLER_32_149
*1243 FILLER_32_158
*1244 FILLER_32_16
*1245 FILLER_32_170
*1246 FILLER_32_182
*1247 FILLER_32_194
*1248 FILLER_32_197
*1249 FILLER_32_209
*1250 FILLER_32_221
*1251 FILLER_32_233
*1252 FILLER_32_245
*1253 FILLER_32_251
*1254 FILLER_32_253
*1255 FILLER_32_26
*1256 FILLER_32_265
*1257 FILLER_32_277
*1258 FILLER_32_289
*1259 FILLER_32_29
*1260 FILLER_32_297
*1261 FILLER_32_3
*1262 FILLER_32_35
*1263 FILLER_32_52
*1264 FILLER_32_56
*1265 FILLER_32_60
*1266 FILLER_32_73
*1267 FILLER_32_77
*1268 FILLER_32_8
*1269 FILLER_32_82
*1270 FILLER_32_85
*1271 FILLER_33_10
*1272 FILLER_33_110
*1273 FILLER_33_113
*1274 FILLER_33_125
*1275 FILLER_33_149
*1276 FILLER_33_161
*1277 FILLER_33_167
*1278 FILLER_33_169
*1279 FILLER_33_18
*1280 FILLER_33_181
*1281 FILLER_33_193
*1282 FILLER_33_205
*1283 FILLER_33_217
*1284 FILLER_33_223
*1285 FILLER_33_225
*1286 FILLER_33_237
*1287 FILLER_33_249
*1288 FILLER_33_261
*1289 FILLER_33_273
*1290 FILLER_33_279
*1291 FILLER_33_281
*1292 FILLER_33_293
*1293 FILLER_33_3
*1294 FILLER_33_35
*1295 FILLER_33_42
*1296 FILLER_33_54
*1297 FILLER_33_57
*1298 FILLER_33_66
*1299 FILLER_33_90
*1300 FILLER_34_107
*1301 FILLER_34_115
*1302 FILLER_34_133
*1303 FILLER_34_139
*1304 FILLER_34_141
*1305 FILLER_34_146
*1306 FILLER_34_150
*1307 FILLER_34_167
*1308 FILLER_34_179
*1309 FILLER_34_191
*1310 FILLER_34_195
*1311 FILLER_34_197
*1312 FILLER_34_209
*1313 FILLER_34_221
*1314 FILLER_34_233
*1315 FILLER_34_245
*1316 FILLER_34_25
*1317 FILLER_34_251
*1318 FILLER_34_253
*1319 FILLER_34_265
*1320 FILLER_34_277
*1321 FILLER_34_289
*1322 FILLER_34_29
*1323 FILLER_34_297
*1324 FILLER_34_3
*1325 FILLER_34_40
*1326 FILLER_34_50
*1327 FILLER_34_74
*1328 FILLER_34_78
*1329 FILLER_34_82
*1330 FILLER_34_85
*1331 FILLER_35_100
*1332 FILLER_35_106
*1333 FILLER_35_110
*1334 FILLER_35_113
*1335 FILLER_35_123
*1336 FILLER_35_135
*1337 FILLER_35_139
*1338 FILLER_35_149
*1339 FILLER_35_159
*1340 FILLER_35_16
*1341 FILLER_35_167
*1342 FILLER_35_169
*1343 FILLER_35_181
*1344 FILLER_35_193
*1345 FILLER_35_205
*1346 FILLER_35_217
*1347 FILLER_35_223
*1348 FILLER_35_225
*1349 FILLER_35_237
*1350 FILLER_35_249
*1351 FILLER_35_261
*1352 FILLER_35_273
*1353 FILLER_35_279
*1354 FILLER_35_281
*1355 FILLER_35_293
*1356 FILLER_35_3
*1357 FILLER_35_33
*1358 FILLER_35_53
*1359 FILLER_35_57
*1360 FILLER_35_69
*1361 FILLER_35_8
*1362 FILLER_35_81
*1363 FILLER_35_89
*1364 FILLER_36_106
*1365 FILLER_36_128
*1366 FILLER_36_132
*1367 FILLER_36_136
*1368 FILLER_36_141
*1369 FILLER_36_161
*1370 FILLER_36_173
*1371 FILLER_36_185
*1372 FILLER_36_193
*1373 FILLER_36_197
*1374 FILLER_36_209
*1375 FILLER_36_221
*1376 FILLER_36_233
*1377 FILLER_36_24
*1378 FILLER_36_245
*1379 FILLER_36_251
*1380 FILLER_36_253
*1381 FILLER_36_265
*1382 FILLER_36_277
*1383 FILLER_36_289
*1384 FILLER_36_29
*1385 FILLER_36_297
*1386 FILLER_36_3
*1387 FILLER_36_38
*1388 FILLER_36_51
*1389 FILLER_36_57
*1390 FILLER_36_74
*1391 FILLER_36_78
*1392 FILLER_36_82
*1393 FILLER_36_85
*1394 FILLER_36_89
*1395 FILLER_36_9
*1396 FILLER_37_105
*1397 FILLER_37_111
*1398 FILLER_37_113
*1399 FILLER_37_123
*1400 FILLER_37_147
*1401 FILLER_37_160
*1402 FILLER_37_169
*1403 FILLER_37_187
*1404 FILLER_37_199
*1405 FILLER_37_211
*1406 FILLER_37_223
*1407 FILLER_37_225
*1408 FILLER_37_237
*1409 FILLER_37_249
*1410 FILLER_37_25
*1411 FILLER_37_261
*1412 FILLER_37_273
*1413 FILLER_37_279
*1414 FILLER_37_281
*1415 FILLER_37_29
*1416 FILLER_37_293
*1417 FILLER_37_3
*1418 FILLER_37_50
*1419 FILLER_37_57
*1420 FILLER_37_68
*1421 FILLER_37_92
*1422 FILLER_38_101
*1423 FILLER_38_109
*1424 FILLER_38_115
*1425 FILLER_38_125
*1426 FILLER_38_133
*1427 FILLER_38_139
*1428 FILLER_38_14
*1429 FILLER_38_141
*1430 FILLER_38_145
*1431 FILLER_38_156
*1432 FILLER_38_167
*1433 FILLER_38_179
*1434 FILLER_38_191
*1435 FILLER_38_195
*1436 FILLER_38_197
*1437 FILLER_38_209
*1438 FILLER_38_221
*1439 FILLER_38_233
*1440 FILLER_38_245
*1441 FILLER_38_251
*1442 FILLER_38_253
*1443 FILLER_38_26
*1444 FILLER_38_265
*1445 FILLER_38_277
*1446 FILLER_38_289
*1447 FILLER_38_29
*1448 FILLER_38_297
*1449 FILLER_38_3
*1450 FILLER_38_35
*1451 FILLER_38_47
*1452 FILLER_38_7
*1453 FILLER_38_71
*1454 FILLER_38_75
*1455 FILLER_38_82
*1456 FILLER_38_85
*1457 FILLER_39_103
*1458 FILLER_39_110
*1459 FILLER_39_113
*1460 FILLER_39_124
*1461 FILLER_39_13
*1462 FILLER_39_135
*1463 FILLER_39_141
*1464 FILLER_39_148
*1465 FILLER_39_154
*1466 FILLER_39_164
*1467 FILLER_39_169
*1468 FILLER_39_181
*1469 FILLER_39_193
*1470 FILLER_39_20
*1471 FILLER_39_205
*1472 FILLER_39_217
*1473 FILLER_39_223
*1474 FILLER_39_225
*1475 FILLER_39_237
*1476 FILLER_39_249
*1477 FILLER_39_261
*1478 FILLER_39_27
*1479 FILLER_39_273
*1480 FILLER_39_279
*1481 FILLER_39_281
*1482 FILLER_39_293
*1483 FILLER_39_3
*1484 FILLER_39_34
*1485 FILLER_39_46
*1486 FILLER_39_53
*1487 FILLER_39_57
*1488 FILLER_39_62
*1489 FILLER_39_68
*1490 FILLER_39_9
*1491 FILLER_39_90
*1492 FILLER_39_99
*1493 FILLER_3_105
*1494 FILLER_3_111
*1495 FILLER_3_113
*1496 FILLER_3_125
*1497 FILLER_3_137
*1498 FILLER_3_149
*1499 FILLER_3_15
*1500 FILLER_3_161
*1501 FILLER_3_167
*1502 FILLER_3_169
*1503 FILLER_3_181
*1504 FILLER_3_193
*1505 FILLER_3_205
*1506 FILLER_3_217
*1507 FILLER_3_223
*1508 FILLER_3_225
*1509 FILLER_3_237
*1510 FILLER_3_249
*1511 FILLER_3_261
*1512 FILLER_3_27
*1513 FILLER_3_273
*1514 FILLER_3_279
*1515 FILLER_3_281
*1516 FILLER_3_293
*1517 FILLER_3_3
*1518 FILLER_3_39
*1519 FILLER_3_51
*1520 FILLER_3_55
*1521 FILLER_3_57
*1522 FILLER_3_69
*1523 FILLER_3_81
*1524 FILLER_3_93
*1525 FILLER_40_105
*1526 FILLER_40_112
*1527 FILLER_40_134
*1528 FILLER_40_141
*1529 FILLER_40_146
*1530 FILLER_40_156
*1531 FILLER_40_165
*1532 FILLER_40_174
*1533 FILLER_40_181
*1534 FILLER_40_193
*1535 FILLER_40_197
*1536 FILLER_40_209
*1537 FILLER_40_221
*1538 FILLER_40_233
*1539 FILLER_40_245
*1540 FILLER_40_251
*1541 FILLER_40_253
*1542 FILLER_40_26
*1543 FILLER_40_265
*1544 FILLER_40_277
*1545 FILLER_40_289
*1546 FILLER_40_29
*1547 FILLER_40_297
*1548 FILLER_40_3
*1549 FILLER_40_33
*1550 FILLER_40_54
*1551 FILLER_40_62
*1552 FILLER_40_66
*1553 FILLER_40_74
*1554 FILLER_40_78
*1555 FILLER_40_82
*1556 FILLER_40_85
*1557 FILLER_40_89
*1558 FILLER_40_9
*1559 FILLER_40_94