*SPEF "ieee 1481-1999"
*DESIGN "morningjava_top"
*DATE "11:11:11 Fri 11 11, 1111"
*VENDOR "OpenRCX"
*PROGRAM "Parallel Extraction"
*VERSION "1.0"
*DESIGN_FLOW "NAME_SCOPE LOCAL" "PIN_CAP NONE"
*DIVIDER /
*DELIMITER :
*BUS_DELIMITER []
*T_UNIT 1 NS
*C_UNIT 1 PF
*R_UNIT 1 OHM
*L_UNIT 1 HENRY

*NAME_MAP
*1 io_in[0]
*2 io_in[1]
*3 io_in[2]
*4 io_in[3]
*5 io_in[4]
*6 io_in[5]
*7 io_in[6]
*8 io_in[7]
*9 io_out[0]
*10 io_out[1]
*11 io_out[2]
*12 io_out[3]
*13 io_out[4]
*14 io_out[5]
*15 io_out[6]
*16 net8
*19 _000_
*20 _001_
*21 _002_
*22 _003_
*23 _004_
*24 _005_
*25 _006_
*26 _007_
*27 _008_
*28 _009_
*29 _010_
*30 _011_
*31 _012_
*32 _013_
*33 _014_
*34 _015_
*35 _016_
*36 _017_
*37 _018_
*38 _019_
*39 _020_
*40 _021_
*41 _022_
*42 _023_
*43 _024_
*44 _025_
*45 _026_
*46 _027_
*47 _028_
*48 _029_
*49 _030_
*50 _031_
*51 _032_
*52 _033_
*53 _034_
*54 _035_
*55 _036_
*56 _037_
*57 _038_
*58 _039_
*59 _040_
*60 _041_
*61 _042_
*62 _043_
*63 _044_
*64 _045_
*65 _046_
*66 _047_
*67 _048_
*68 _049_
*69 _050_
*70 _051_
*71 clknet_0_io_in[0]
*72 clknet_2_0__leaf_io_in[0]
*73 clknet_2_1__leaf_io_in[0]
*74 clknet_2_2__leaf_io_in[0]
*75 clknet_2_3__leaf_io_in[0]
*76 net1
*77 net10
*78 net11
*79 net12
*80 net13
*81 net14
*82 net15
*83 net16
*84 net2
*85 net3
*86 net4
*87 net5
*88 net6
*89 net7
*90 net9
*91 sqrt\.d\[1\]\[2\]
*92 sqrt\.d\[1\]\[3\]
*93 sqrt\.d\[1\]\[4\]
*94 sqrt\.d\[1\]\[5\]
*95 sqrt\.d\[1\]\[6\]
*96 sqrt\.d\[1\]\[7\]
*97 sqrt\.d\[2\]\[4\]
*98 sqrt\.d\[2\]\[5\]
*99 sqrt\.d\[2\]\[6\]
*100 sqrt\.d\[2\]\[7\]
*101 sqrt\.d\[3\]\[6\]
*102 sqrt\.d\[3\]\[7\]
*103 sqrt\.q\[1\]\[0\]
*104 sqrt\.q\[2\]\[0\]
*105 sqrt\.q\[2\]\[1\]
*106 sqrt\.q\[3\]\[0\]
*107 sqrt\.q\[3\]\[1\]
*108 sqrt\.q\[3\]\[2\]
*109 sqrt\.q\[4\]\[0\]
*110 sqrt\.q\[4\]\[1\]
*111 sqrt\.q\[4\]\[2\]
*112 sqrt\.q\[4\]\[3\]
*113 sqrt\.r\[2\]\[0\]
*114 sqrt\.r\[2\]\[1\]
*115 sqrt\.r\[2\]\[2\]
*116 sqrt\.r\[2\]\[3\]
*117 sqrt\.r\[3\]\[0\]
*118 sqrt\.r\[3\]\[1\]
*119 sqrt\.r\[3\]\[2\]
*120 sqrt\.r\[3\]\[3\]
*121 sqrt\.r\[3\]\[5\]
*122 sqrt\.sqrt_gen\[0\]\.alu\[0\]
*123 sqrt\.sqrt_gen\[1\]\.alu\[0\]
*124 sqrt\.sqrt_gen\[1\]\.alu\[1\]
*125 sqrt\.sqrt_gen\[1\]\.alu\[2\]
*126 sqrt\.sqrt_gen\[1\]\.alu\[3\]
*127 sqrt\.sqrt_gen\[1\]\.sign
*128 sqrt\.sqrt_gen\[2\]\.alu\[0\]
*129 sqrt\.sqrt_gen\[2\]\.alu\[1\]
*130 sqrt\.sqrt_gen\[2\]\.alu\[2\]
*131 sqrt\.sqrt_gen\[2\]\.alu\[3\]
*132 sqrt\.sqrt_gen\[2\]\.alu\[5\]
*133 FILLER_0_103
*134 FILLER_0_111
*135 FILLER_0_113
*136 FILLER_0_131
*137 FILLER_0_139
*138 FILLER_0_141
*139 FILLER_0_153
*140 FILLER_0_165
*141 FILLER_0_169
*142 FILLER_0_181
*143 FILLER_0_193
*144 FILLER_0_197
*145 FILLER_0_209
*146 FILLER_0_221
*147 FILLER_0_225
*148 FILLER_0_237
*149 FILLER_0_249
*150 FILLER_0_253
*151 FILLER_0_26
*152 FILLER_0_265
*153 FILLER_0_277
*154 FILLER_0_281
*155 FILLER_0_29
*156 FILLER_0_293
*157 FILLER_0_3
*158 FILLER_0_37
*159 FILLER_0_54
*160 FILLER_0_57
*161 FILLER_0_75
*162 FILLER_0_83
*163 FILLER_0_85
*164 FILLER_0_9
*165 FILLER_10_103
*166 FILLER_10_115
*167 FILLER_10_119
*168 FILLER_10_127
*169 FILLER_10_139
*170 FILLER_10_141
*171 FILLER_10_153
*172 FILLER_10_165
*173 FILLER_10_177
*174 FILLER_10_189
*175 FILLER_10_195
*176 FILLER_10_197
*177 FILLER_10_209
*178 FILLER_10_221
*179 FILLER_10_233
*180 FILLER_10_245
*181 FILLER_10_25
*182 FILLER_10_251
*183 FILLER_10_253
*184 FILLER_10_265
*185 FILLER_10_277
*186 FILLER_10_289
*187 FILLER_10_29
*188 FILLER_10_297
*189 FILLER_10_3
*190 FILLER_10_41
*191 FILLER_10_66
*192 FILLER_10_7
*193 FILLER_10_78
*194 FILLER_10_85
*195 FILLER_11_104
*196 FILLER_11_113
*197 FILLER_11_125
*198 FILLER_11_137
*199 FILLER_11_148
*200 FILLER_11_160
*201 FILLER_11_169
*202 FILLER_11_181
*203 FILLER_11_193
*204 FILLER_11_205
*205 FILLER_11_217
*206 FILLER_11_223
*207 FILLER_11_225
*208 FILLER_11_237
*209 FILLER_11_249
*210 FILLER_11_25
*211 FILLER_11_261
*212 FILLER_11_273
*213 FILLER_11_279
*214 FILLER_11_281
*215 FILLER_11_293
*216 FILLER_11_3
*217 FILLER_11_34
*218 FILLER_11_54
*219 FILLER_11_57
*220 FILLER_11_7
*221 FILLER_11_76
*222 FILLER_11_88
*223 FILLER_11_93
*224 FILLER_12_109
*225 FILLER_12_121
*226 FILLER_12_133
*227 FILLER_12_139
*228 FILLER_12_141
*229 FILLER_12_153
*230 FILLER_12_165
*231 FILLER_12_177
*232 FILLER_12_189
*233 FILLER_12_195
*234 FILLER_12_197
*235 FILLER_12_209
*236 FILLER_12_221
*237 FILLER_12_233
*238 FILLER_12_245
*239 FILLER_12_25
*240 FILLER_12_251
*241 FILLER_12_253
*242 FILLER_12_265
*243 FILLER_12_277
*244 FILLER_12_289
*245 FILLER_12_29
*246 FILLER_12_297
*247 FILLER_12_3
*248 FILLER_12_39
*249 FILLER_12_47
*250 FILLER_12_66
*251 FILLER_12_7
*252 FILLER_12_78
*253 FILLER_12_85
*254 FILLER_12_97
*255 FILLER_13_111
*256 FILLER_13_113
*257 FILLER_13_125
*258 FILLER_13_137
*259 FILLER_13_149
*260 FILLER_13_161
*261 FILLER_13_167
*262 FILLER_13_169
*263 FILLER_13_181
*264 FILLER_13_193
*265 FILLER_13_205
*266 FILLER_13_217
*267 FILLER_13_223
*268 FILLER_13_225
*269 FILLER_13_237
*270 FILLER_13_24
*271 FILLER_13_249
*272 FILLER_13_261
*273 FILLER_13_273
*274 FILLER_13_279
*275 FILLER_13_281
*276 FILLER_13_293
*277 FILLER_13_3
*278 FILLER_13_36
*279 FILLER_13_48
*280 FILLER_13_57
*281 FILLER_13_7
*282 FILLER_13_75
*283 FILLER_13_87
*284 FILLER_13_99
*285 FILLER_14_103
*286 FILLER_14_115
*287 FILLER_14_127
*288 FILLER_14_139
*289 FILLER_14_141
*290 FILLER_14_153
*291 FILLER_14_165
*292 FILLER_14_177
*293 FILLER_14_189
*294 FILLER_14_195
*295 FILLER_14_197
*296 FILLER_14_209
*297 FILLER_14_221
*298 FILLER_14_233
*299 FILLER_14_24
*300 FILLER_14_245
*301 FILLER_14_251
*302 FILLER_14_253
*303 FILLER_14_265
*304 FILLER_14_277
*305 FILLER_14_289
*306 FILLER_14_29
*307 FILLER_14_297
*308 FILLER_14_3
*309 FILLER_14_41
*310 FILLER_14_65
*311 FILLER_14_7
*312 FILLER_14_77
*313 FILLER_14_83
*314 FILLER_14_85
*315 FILLER_14_93
*316 FILLER_15_105
*317 FILLER_15_111
*318 FILLER_15_113
*319 FILLER_15_125
*320 FILLER_15_137
*321 FILLER_15_149
*322 FILLER_15_161
*323 FILLER_15_167
*324 FILLER_15_169
*325 FILLER_15_181
*326 FILLER_15_193
*327 FILLER_15_205
*328 FILLER_15_217
*329 FILLER_15_223
*330 FILLER_15_225
*331 FILLER_15_237
*332 FILLER_15_24
*333 FILLER_15_249
*334 FILLER_15_261
*335 FILLER_15_273
*336 FILLER_15_279
*337 FILLER_15_281
*338 FILLER_15_293
*339 FILLER_15_3
*340 FILLER_15_36
*341 FILLER_15_48
*342 FILLER_15_57
*343 FILLER_15_69
*344 FILLER_15_7
*345 FILLER_15_81
*346 FILLER_15_93
*347 FILLER_16_109
*348 FILLER_16_121
*349 FILLER_16_133
*350 FILLER_16_139
*351 FILLER_16_141
*352 FILLER_16_153
*353 FILLER_16_165
*354 FILLER_16_177
*355 FILLER_16_189
*356 FILLER_16_195
*357 FILLER_16_197
*358 FILLER_16_20
*359 FILLER_16_209
*360 FILLER_16_221
*361 FILLER_16_233
*362 FILLER_16_245
*363 FILLER_16_251
*364 FILLER_16_253
*365 FILLER_16_265
*366 FILLER_16_277
*367 FILLER_16_289
*368 FILLER_16_29
*369 FILLER_16_297
*370 FILLER_16_3
*371 FILLER_16_41
*372 FILLER_16_53
*373 FILLER_16_61
*374 FILLER_16_70
*375 FILLER_16_8
*376 FILLER_16_82
*377 FILLER_16_85
*378 FILLER_16_97
*379 FILLER_17_108
*380 FILLER_17_11
*381 FILLER_17_113
*382 FILLER_17_121
*383 FILLER_17_129
*384 FILLER_17_141
*385 FILLER_17_159
*386 FILLER_17_167
*387 FILLER_17_169
*388 FILLER_17_17
*389 FILLER_17_181
*390 FILLER_17_193
*391 FILLER_17_205
*392 FILLER_17_217
*393 FILLER_17_223
*394 FILLER_17_225
*395 FILLER_17_237
*396 FILLER_17_249
*397 FILLER_17_261
*398 FILLER_17_273
*399 FILLER_17_279
*400 FILLER_17_281
*401 FILLER_17_29
*402 FILLER_17_293
*403 FILLER_17_3
*404 FILLER_17_39
*405 FILLER_17_50
*406 FILLER_17_57
*407 FILLER_17_72
*408 FILLER_17_84
*409 FILLER_17_96
*410 FILLER_18_103
*411 FILLER_18_111
*412 FILLER_18_123
*413 FILLER_18_132
*414 FILLER_18_141
*415 FILLER_18_149
*416 FILLER_18_15
*417 FILLER_18_155
*418 FILLER_18_162
*419 FILLER_18_174
*420 FILLER_18_186
*421 FILLER_18_194
*422 FILLER_18_197
*423 FILLER_18_209
*424 FILLER_18_221
*425 FILLER_18_233
*426 FILLER_18_245
*427 FILLER_18_251
*428 FILLER_18_253
*429 FILLER_18_265
*430 FILLER_18_27
*431 FILLER_18_277
*432 FILLER_18_289
*433 FILLER_18_29
*434 FILLER_18_297
*435 FILLER_18_3
*436 FILLER_18_41
*437 FILLER_18_49
*438 FILLER_18_58
*439 FILLER_18_70
*440 FILLER_18_77
*441 FILLER_18_83
*442 FILLER_18_85
*443 FILLER_18_97
*444 FILLER_19_105
*445 FILLER_19_111
*446 FILLER_19_113
*447 FILLER_19_125
*448 FILLER_19_137
*449 FILLER_19_149
*450 FILLER_19_15
*451 FILLER_19_161
*452 FILLER_19_167
*453 FILLER_19_169
*454 FILLER_19_181
*455 FILLER_19_193
*456 FILLER_19_205
*457 FILLER_19_217
*458 FILLER_19_223
*459 FILLER_19_225
*460 FILLER_19_237
*461 FILLER_19_249
*462 FILLER_19_261
*463 FILLER_19_27
*464 FILLER_19_273
*465 FILLER_19_279
*466 FILLER_19_281
*467 FILLER_19_293
*468 FILLER_19_3
*469 FILLER_19_39
*470 FILLER_19_51
*471 FILLER_19_55
*472 FILLER_19_57
*473 FILLER_19_69
*474 FILLER_19_81
*475 FILLER_19_87
*476 FILLER_19_99
*477 FILLER_1_105
*478 FILLER_1_111
*479 FILLER_1_113
*480 FILLER_1_125
*481 FILLER_1_137
*482 FILLER_1_149
*483 FILLER_1_15
*484 FILLER_1_161
*485 FILLER_1_167
*486 FILLER_1_169
*487 FILLER_1_181
*488 FILLER_1_193
*489 FILLER_1_205
*490 FILLER_1_217
*491 FILLER_1_223
*492 FILLER_1_225
*493 FILLER_1_237
*494 FILLER_1_249
*495 FILLER_1_261
*496 FILLER_1_273
*497 FILLER_1_279
*498 FILLER_1_281
*499 FILLER_1_293
*500 FILLER_1_3
*501 FILLER_1_33
*502 FILLER_1_54
*503 FILLER_1_57
*504 FILLER_1_75
*505 FILLER_1_95
*506 FILLER_20_109
*507 FILLER_20_121
*508 FILLER_20_133
*509 FILLER_20_139
*510 FILLER_20_141
*511 FILLER_20_153
*512 FILLER_20_165
*513 FILLER_20_177
*514 FILLER_20_189
*515 FILLER_20_195
*516 FILLER_20_197
*517 FILLER_20_20
*518 FILLER_20_209
*519 FILLER_20_221
*520 FILLER_20_233
*521 FILLER_20_245
*522 FILLER_20_251
*523 FILLER_20_253
*524 FILLER_20_265
*525 FILLER_20_277
*526 FILLER_20_289
*527 FILLER_20_29
*528 FILLER_20_297
*529 FILLER_20_3
*530 FILLER_20_41
*531 FILLER_20_53
*532 FILLER_20_57
*533 FILLER_20_63
*534 FILLER_20_75
*535 FILLER_20_8
*536 FILLER_20_83
*537 FILLER_20_85
*538 FILLER_20_97
*539 FILLER_21_106
*540 FILLER_21_110
*541 FILLER_21_113
*542 FILLER_21_125
*543 FILLER_21_137
*544 FILLER_21_149
*545 FILLER_21_15
*546 FILLER_21_161
*547 FILLER_21_167
*548 FILLER_21_169
*549 FILLER_21_181
*550 FILLER_21_193
*551 FILLER_21_205
*552 FILLER_21_217
*553 FILLER_21_223
*554 FILLER_21_225
*555 FILLER_21_237
*556 FILLER_21_249
*557 FILLER_21_261
*558 FILLER_21_27
*559 FILLER_21_273
*560 FILLER_21_279
*561 FILLER_21_281
*562 FILLER_21_293
*563 FILLER_21_3
*564 FILLER_21_33
*565 FILLER_21_45
*566 FILLER_21_53
*567 FILLER_21_57
*568 FILLER_21_65
*569 FILLER_21_74
*570 FILLER_21_86
*571 FILLER_21_98
*572 FILLER_22_108
*573 FILLER_22_120
*574 FILLER_22_132
*575 FILLER_22_141
*576 FILLER_22_15
*577 FILLER_22_153
*578 FILLER_22_165
*579 FILLER_22_177
*580 FILLER_22_189
*581 FILLER_22_193
*582 FILLER_22_197
*583 FILLER_22_209
*584 FILLER_22_221
*585 FILLER_22_233
*586 FILLER_22_245
*587 FILLER_22_251
*588 FILLER_22_253
*589 FILLER_22_265
*590 FILLER_22_27
*591 FILLER_22_277
*592 FILLER_22_289
*593 FILLER_22_29
*594 FILLER_22_297
*595 FILLER_22_3
*596 FILLER_22_41
*597 FILLER_22_53
*598 FILLER_22_57
*599 FILLER_22_64
*600 FILLER_22_76
*601 FILLER_22_85
*602 FILLER_22_96
*603 FILLER_23_105
*604 FILLER_23_111
*605 FILLER_23_113
*606 FILLER_23_125
*607 FILLER_23_137
*608 FILLER_23_149
*609 FILLER_23_15
*610 FILLER_23_161
*611 FILLER_23_167
*612 FILLER_23_169
*613 FILLER_23_181
*614 FILLER_23_193
*615 FILLER_23_205
*616 FILLER_23_217
*617 FILLER_23_223
*618 FILLER_23_225
*619 FILLER_23_237
*620 FILLER_23_249
*621 FILLER_23_261
*622 FILLER_23_27
*623 FILLER_23_273
*624 FILLER_23_279
*625 FILLER_23_281
*626 FILLER_23_293
*627 FILLER_23_3
*628 FILLER_23_39
*629 FILLER_23_51
*630 FILLER_23_55
*631 FILLER_23_57
*632 FILLER_23_69
*633 FILLER_23_81
*634 FILLER_23_93
*635 FILLER_24_109
*636 FILLER_24_121
*637 FILLER_24_133
*638 FILLER_24_139
*639 FILLER_24_141
*640 FILLER_24_153
*641 FILLER_24_165
*642 FILLER_24_177
*643 FILLER_24_189
*644 FILLER_24_195
*645 FILLER_24_197
*646 FILLER_24_20
*647 FILLER_24_209
*648 FILLER_24_221
*649 FILLER_24_233
*650 FILLER_24_245
*651 FILLER_24_251
*652 FILLER_24_253
*653 FILLER_24_265
*654 FILLER_24_277
*655 FILLER_24_289
*656 FILLER_24_29
*657 FILLER_24_297
*658 FILLER_24_3
*659 FILLER_24_34
*660 FILLER_24_46
*661 FILLER_24_55
*662 FILLER_24_67
*663 FILLER_24_79
*664 FILLER_24_8
*665 FILLER_24_83
*666 FILLER_24_85
*667 FILLER_24_97
*668 FILLER_25_100
*669 FILLER_25_107
*670 FILLER_25_111
*671 FILLER_25_113
*672 FILLER_25_126
*673 FILLER_25_138
*674 FILLER_25_150
*675 FILLER_25_162
*676 FILLER_25_169
*677 FILLER_25_17
*678 FILLER_25_181
*679 FILLER_25_193
*680 FILLER_25_205
*681 FILLER_25_217
*682 FILLER_25_223
*683 FILLER_25_225
*684 FILLER_25_237
*685 FILLER_25_249
*686 FILLER_25_261
*687 FILLER_25_273
*688 FILLER_25_279
*689 FILLER_25_281
*690 FILLER_25_29
*691 FILLER_25_293
*692 FILLER_25_3
*693 FILLER_25_43
*694 FILLER_25_55
*695 FILLER_25_57
*696 FILLER_25_69
*697 FILLER_25_77
*698 FILLER_25_84
*699 FILLER_25_92
*700 FILLER_26_109
*701 FILLER_26_115
*702 FILLER_26_122
*703 FILLER_26_134
*704 FILLER_26_141
*705 FILLER_26_153
*706 FILLER_26_165
*707 FILLER_26_177
*708 FILLER_26_189
*709 FILLER_26_19
*710 FILLER_26_195
*711 FILLER_26_197
*712 FILLER_26_209
*713 FILLER_26_221
*714 FILLER_26_233
*715 FILLER_26_245
*716 FILLER_26_251
*717 FILLER_26_253
*718 FILLER_26_265
*719 FILLER_26_27
*720 FILLER_26_277
*721 FILLER_26_289
*722 FILLER_26_29
*723 FILLER_26_297
*724 FILLER_26_3
*725 FILLER_26_41
*726 FILLER_26_53
*727 FILLER_26_65
*728 FILLER_26_77
*729 FILLER_26_83
*730 FILLER_26_85
*731 FILLER_26_9
*732 FILLER_26_97
*733 FILLER_27_102
*734 FILLER_27_110
*735 FILLER_27_113
*736 FILLER_27_125
*737 FILLER_27_137
*738 FILLER_27_149
*739 FILLER_27_161
*740 FILLER_27_167
*741 FILLER_27_169
*742 FILLER_27_181
*743 FILLER_27_193
*744 FILLER_27_20
*745 FILLER_27_205
*746 FILLER_27_217
*747 FILLER_27_223
*748 FILLER_27_225
*749 FILLER_27_237
*750 FILLER_27_249
*751 FILLER_27_261
*752 FILLER_27_273
*753 FILLER_27_279
*754 FILLER_27_281
*755 FILLER_27_293
*756 FILLER_27_3
*757 FILLER_27_32
*758 FILLER_27_44
*759 FILLER_27_57
*760 FILLER_27_69
*761 FILLER_27_78
*762 FILLER_27_8
*763 FILLER_27_90
*764 FILLER_28_103
*765 FILLER_28_117
*766 FILLER_28_129
*767 FILLER_28_137
*768 FILLER_28_141
*769 FILLER_28_15
*770 FILLER_28_153
*771 FILLER_28_165
*772 FILLER_28_177
*773 FILLER_28_189
*774 FILLER_28_195
*775 FILLER_28_197
*776 FILLER_28_209
*777 FILLER_28_221
*778 FILLER_28_233
*779 FILLER_28_245
*780 FILLER_28_251
*781 FILLER_28_253
*782 FILLER_28_265
*783 FILLER_28_27
*784 FILLER_28_277
*785 FILLER_28_289
*786 FILLER_28_29
*787 FILLER_28_297
*788 FILLER_28_3
*789 FILLER_28_41
*790 FILLER_28_45
*791 FILLER_28_52
*792 FILLER_28_60
*793 FILLER_28_70
*794 FILLER_28_82
*795 FILLER_28_85
*796 FILLER_28_96
*797 FILLER_29_110
*798 FILLER_29_113
*799 FILLER_29_125
*800 FILLER_29_137
*801 FILLER_29_149
*802 FILLER_29_15
*803 FILLER_29_161
*804 FILLER_29_167
*805 FILLER_29_169
*806 FILLER_29_181
*807 FILLER_29_193
*808 FILLER_29_205
*809 FILLER_29_217
*810 FILLER_29_223
*811 FILLER_29_225
*812 FILLER_29_237
*813 FILLER_29_249
*814 FILLER_29_261
*815 FILLER_29_27
*816 FILLER_29_273
*817 FILLER_29_279
*818 FILLER_29_281
*819 FILLER_29_293
*820 FILLER_29_3
*821 FILLER_29_39
*822 FILLER_29_51
*823 FILLER_29_55
*824 FILLER_29_57
*825 FILLER_29_62
*826 FILLER_29_74
*827 FILLER_29_86
*828 FILLER_29_98
*829 FILLER_2_103
*830 FILLER_2_120
*831 FILLER_2_132
*832 FILLER_2_141
*833 FILLER_2_153
*834 FILLER_2_166
*835 FILLER_2_182
*836 FILLER_2_194
*837 FILLER_2_197
*838 FILLER_2_209
*839 FILLER_2_221
*840 FILLER_2_233
*841 FILLER_2_24
*842 FILLER_2_245
*843 FILLER_2_251
*844 FILLER_2_253
*845 FILLER_2_265
*846 FILLER_2_277
*847 FILLER_2_289
*848 FILLER_2_29
*849 FILLER_2_297
*850 FILLER_2_3
*851 FILLER_2_41
*852 FILLER_2_65
*853 FILLER_2_7
*854 FILLER_2_77
*855 FILLER_2_83
*856 FILLER_2_85
*857 FILLER_30_109
*858 FILLER_30_121
*859 FILLER_30_133
*860 FILLER_30_139
*861 FILLER_30_141
*862 FILLER_30_15
*863 FILLER_30_153
*864 FILLER_30_165
*865 FILLER_30_177
*866 FILLER_30_189
*867 FILLER_30_195
*868 FILLER_30_197
*869 FILLER_30_209
*870 FILLER_30_221
*871 FILLER_30_233
*872 FILLER_30_245
*873 FILLER_30_251
*874 FILLER_30_253
*875 FILLER_30_265
*876 FILLER_30_27
*877 FILLER_30_277
*878 FILLER_30_289
*879 FILLER_30_29
*880 FILLER_30_297
*881 FILLER_30_3
*882 FILLER_30_41
*883 FILLER_30_53
*884 FILLER_30_64
*885 FILLER_30_76
*886 FILLER_30_85
*887 FILLER_30_97
*888 FILLER_31_105
*889 FILLER_31_111
*890 FILLER_31_113
*891 FILLER_31_125
*892 FILLER_31_137
*893 FILLER_31_149
*894 FILLER_31_15
*895 FILLER_31_161
*896 FILLER_31_167
*897 FILLER_31_169
*898 FILLER_31_181
*899 FILLER_31_193
*900 FILLER_31_205
*901 FILLER_31_217
*902 FILLER_31_223
*903 FILLER_31_225
*904 FILLER_31_237
*905 FILLER_31_249
*906 FILLER_31_261
*907 FILLER_31_27
*908 FILLER_31_273
*909 FILLER_31_279
*910 FILLER_31_281
*911 FILLER_31_293
*912 FILLER_31_3
*913 FILLER_31_39
*914 FILLER_31_51
*915 FILLER_31_55
*916 FILLER_31_57
*917 FILLER_31_69
*918 FILLER_31_81
*919 FILLER_31_93
*920 FILLER_32_109
*921 FILLER_32_121
*922 FILLER_32_133
*923 FILLER_32_139
*924 FILLER_32_141
*925 FILLER_32_15
*926 FILLER_32_153
*927 FILLER_32_165
*928 FILLER_32_177
*929 FILLER_32_189
*930 FILLER_32_195
*931 FILLER_32_197
*932 FILLER_32_209
*933 FILLER_32_221
*934 FILLER_32_233
*935 FILLER_32_245
*936 FILLER_32_251
*937 FILLER_32_253
*938 FILLER_32_265
*939 FILLER_32_27
*940 FILLER_32_277
*941 FILLER_32_289
*942 FILLER_32_29
*943 FILLER_32_297
*944 FILLER_32_3
*945 FILLER_32_41
*946 FILLER_32_53
*947 FILLER_32_65
*948 FILLER_32_77
*949 FILLER_32_83
*950 FILLER_32_85
*951 FILLER_32_97
*952 FILLER_33_105
*953 FILLER_33_111
*954 FILLER_33_113
*955 FILLER_33_125
*956 FILLER_33_137
*957 FILLER_33_149
*958 FILLER_33_15
*959 FILLER_33_161
*960 FILLER_33_167
*961 FILLER_33_169
*962 FILLER_33_181
*963 FILLER_33_193
*964 FILLER_33_205
*965 FILLER_33_217
*966 FILLER_33_223
*967 FILLER_33_225
*968 FILLER_33_237
*969 FILLER_33_249
*970 FILLER_33_261
*971 FILLER_33_27
*972 FILLER_33_273
*973 FILLER_33_279
*974 FILLER_33_281
*975 FILLER_33_293
*976 FILLER_33_3
*977 FILLER_33_39
*978 FILLER_33_51
*979 FILLER_33_55
*980 FILLER_33_57
*981 FILLER_33_69
*982 FILLER_33_81
*983 FILLER_33_93
*984 FILLER_34_109
*985 FILLER_34_121
*986 FILLER_34_133
*987 FILLER_34_139
*988 FILLER_34_141
*989 FILLER_34_15
*990 FILLER_34_153
*991 FILLER_34_165
*992 FILLER_34_177
*993 FILLER_34_189
*994 FILLER_34_195
*995 FILLER_34_197
*996 FILLER_34_209
*997 FILLER_34_221
*998 FILLER_34_233
*999 FILLER_34_245
*1000 FILLER_34_251
*1001 FILLER_34_253
*1002 FILLER_34_265
*1003 FILLER_34_27
*1004 FILLER_34_277
*1005 FILLER_34_289
*1006 FILLER_34_29
*1007 FILLER_34_297
*1008 FILLER_34_3
*1009 FILLER_34_41
*1010 FILLER_34_53
*1011 FILLER_34_65
*1012 FILLER_34_77
*1013 FILLER_34_83
*1014 FILLER_34_85
*1015 FILLER_34_97
*1016 FILLER_35_105
*1017 FILLER_35_111
*1018 FILLER_35_113
*1019 FILLER_35_125
*1020 FILLER_35_137
*1021 FILLER_35_149
*1022 FILLER_35_15
*1023 FILLER_35_161
*1024 FILLER_35_167
*1025 FILLER_35_169
*1026 FILLER_35_181
*1027 FILLER_35_193
*1028 FILLER_35_205
*1029 FILLER_35_217
*1030 FILLER_35_223
*1031 FILLER_35_225
*1032 FILLER_35_237
*1033 FILLER_35_249
*1034 FILLER_35_261
*1035 FILLER_35_27
*1036 FILLER_35_273
*1037 FILLER_35_279
*1038 FILLER_35_281
*1039 FILLER_35_293
*1040 FILLER_35_3
*1041 FILLER_35_39
*1042 FILLER_35_51
*1043 FILLER_35_55
*1044 FILLER_35_57
*1045 FILLER_35_69
*1046 FILLER_35_81
*1047 FILLER_35_93
*1048 FILLER_36_109
*1049 FILLER_36_121
*1050 FILLER_36_133
*1051 FILLER_36_139
*1052 FILLER_36_141
*1053 FILLER_36_15
*1054 FILLER_36_153
*1055 FILLER_36_165
*1056 FILLER_36_177
*1057 FILLER_36_189
*1058 FILLER_36_195
*1059 FILLER_36_197
*1060 FILLER_36_209
*1061 FILLER_36_221
*1062 FILLER_36_233
*1063 FILLER_36_245
*1064 FILLER_36_251
*1065 FILLER_36_253
*1066 FILLER_36_265
*1067 FILLER_36_27
*1068 FILLER_36_277
*1069 FILLER_36_289
*1070 FILLER_36_29
*1071 FILLER_36_297
*1072 FILLER_36_3
*1073 FILLER_36_41
*1074 FILLER_36_53
*1075 FILLER_36_65
*1076 FILLER_36_77
*1077 FILLER_36_83
*1078 FILLER_36_85
*1079 FILLER_36_97
*1080 FILLER_37_105
*1081 FILLER_37_111
*1082 FILLER_37_113
*1083 FILLER_37_125
*1084 FILLER_37_137
*1085 FILLER_37_149
*1086 FILLER_37_15
*1087 FILLER_37_161
*1088 FILLER_37_167
*1089 FILLER_37_169
*1090 FILLER_37_181
*1091 FILLER_37_193
*1092 FILLER_37_205
*1093 FILLER_37_217
*1094 FILLER_37_223
*1095 FILLER_37_225
*1096 FILLER_37_237
*1097 FILLER_37_249
*1098 FILLER_37_261
*1099 FILLER_37_27
*1100 FILLER_37_273
*1101 FILLER_37_279
*1102 FILLER_37_281
*1103 FILLER_37_293
*1104 FILLER_37_3
*1105 FILLER_37_39
*1106 FILLER_37_51
*1107 FILLER_37_55
*1108 FILLER_37_57
*1109 FILLER_37_69
*1110 FILLER_37_81
*1111 FILLER_37_93
*1112 FILLER_38_109
*1113 FILLER_38_121
*1114 FILLER_38_133
*1115 FILLER_38_139
*1116 FILLER_38_141
*1117 FILLER_38_15
*1118 FILLER_38_153
*1119 FILLER_38_165
*1120 FILLER_38_177
*1121 FILLER_38_189
*1122 FILLER_38_195
*1123 FILLER_38_197
*1124 FILLER_38_209
*1125 FILLER_38_221
*1126 FILLER_38_233
*1127 FILLER_38_245
*1128 FILLER_38_251
*1129 FILLER_38_253
*1130 FILLER_38_265
*1131 FILLER_38_27
*1132 FILLER_38_277
*1133 FILLER_38_289
*1134 FILLER_38_29
*1135 FILLER_38_297
*1136 FILLER_38_3
*1137 FILLER_38_41
*1138 FILLER_38_53
*1139 FILLER_38_65
*1140 FILLER_38_77
*1141 FILLER_38_83
*1142 FILLER_38_85
*1143 FILLER_38_97
*1144 FILLER_39_105
*1145 FILLER_39_111
*1146 FILLER_39_113
*1147 FILLER_39_125
*1148 FILLER_39_137
*1149 FILLER_39_149
*1150 FILLER_39_15
*1151 FILLER_39_161
*1152 FILLER_39_167
*1153 FILLER_39_169
*1154 FILLER_39_181
*1155 FILLER_39_193
*1156 FILLER_39_205
*1157 FILLER_39_217
*1158 FILLER_39_223
*1159 FILLER_39_225
*1160 FILLER_39_237
*1161 FILLER_39_249
*1162 FILLER_39_261
*1163 FILLER_39_27
*1164 FILLER_39_273
*1165 FILLER_39_279
*1166 FILLER_39_281
*1167 FILLER_39_293
*1168 FILLER_39_3
*1169 FILLER_39_39
*1170 FILLER_39_51
*1171 FILLER_39_55
*1172 FILLER_39_57
*1173 FILLER_39_69
*1174 FILLER_39_81
*1175 FILLER_39_93
*1176 FILLER_3_102
*1177 FILLER_3_110
*1178 FILLER_3_113
*1179 FILLER_3_125
*1180 FILLER_3_137
*1181 FILLER_3_149
*1182 FILLER_3_161
*1183 FILLER_3_167
*1184 FILLER_3_169
*1185 FILLER_3_181
*1186 FILLER_3_193
*1187 FILLER_3_205
*1188 FILLER_3_217
*1189 FILLER_3_223
*1190 FILLER_3_225
*1191 FILLER_3_237
*1192 FILLER_3_249
*1193 FILLER_3_261
*1194 FILLER_3_273
*1195 FILLER_3_279
*1196 FILLER_3_281
*1197 FILLER_3_293
*1198 FILLER_3_3
*1199 FILLER_3_36
*1200 FILLER_3_44
*1201 FILLER_3_54
*1202 FILLER_3_57
*1203 FILLER_3_75
*1204 FILLER_3_8
*1205 FILLER_3_95
*1206 FILLER_40_109
*1207 FILLER_40_121
*1208 FILLER_40_133
*1209 FILLER_40_139
*1210 FILLER_40_141
*1211 FILLER_40_15
*1212 FILLER_40_153
*1213 FILLER_40_165
*1214 FILLER_40_177
*1215 FILLER_40_189
*1216 FILLER_40_195
*1217 FILLER_40_197
*1218 FILLER_40_209
*1219 FILLER_40_221
*1220 FILLER_40_233
*1221 FILLER_40_245
*1222 FILLER_40_251
*1223 FILLER_40_253
*1224 FILLER_40_265
*1225 FILLER_40_27
*1226 FILLER_40_277
*1227 FILLER_40_289
*1228 FILLER_40_29
*1229 FILLER_40_297
*1230 FILLER_40_3
*1231 FILLER_40_41
*1232 FILLER_40_53
*1233 FILLER_40_65
*1234 FILLER_40_77
*1235 FILLER_40_83
*1236 FILLER_40_85
*1237 FILLER_40_97
*1238 FILLER_41_105
*1239 FILLER_41_111
*1240 FILLER_41_113
*1241 FILLER_41_125
*1242 FILLER_41_137
*1243 FILLER_41_149
*1244 FILLER_41_15
*1245 FILLER_41_161
*1246 FILLER_41_167
*1247 FILLER_41_169
*1248 FILLER_41_181
*1249 FILLER_41_193
*1250 FILLER_41_205
*1251 FILLER_41_217
*1252 FILLER_41_223
*1253 FILLER_41_225
*1254 FILLER_41_237
*1255 FILLER_41_249
*1256 FILLER_41_261
*1257 FILLER_41_27
*1258 FILLER_41_273
*1259 FILLER_41_279
*1260 FILLER_41_281
*1261 FILLER_41_293
*1262 FILLER_41_3
*1263 FILLER_41_39
*1264 FILLER_41_51
*1265 FILLER_41_55
*1266 FILLER_41_57
*1267 FILLER_41_69
*1268 FILLER_41_81
*1269 FILLER_41_93
*1270 FILLER_42_109
*1271 FILLER_42_121
*1272 FILLER_42_133
*1273 FILLER_42_139
*1274 FILLER_42_141
*1275 FILLER_42_15
*1276 FILLER_42_153
*1277 FILLER_42_165
*1278 FILLER_42_177
*1279 FILLER_42_189
*1280 FILLER_42_195
*1281 FILLER_42_197
*1282 FILLER_42_209
*1283 FILLER_42_221
*1284 FILLER_42_233
*1285 FILLER_42_245
*1286 FILLER_42_251
*1287 FILLER_42_253
*1288 FILLER_42_265
*1289 FILLER_42_27
*1290 FILLER_42_277
*1291 FILLER_42_289
*1292 FILLER_42_29
*1293 FILLER_42_297
*1294 FILLER_42_3
*1295 FILLER_42_41
*1296 FILLER_42_53
*1297 FILLER_42_65
*1298 FILLER_42_77
*1299 FILLER_42_83
*1300 FILLER_42_85
*1301 FILLER_42_97
*1302 FILLER_43_105
*1303 FILLER_43_111
*1304 FILLER_43_113
*1305 FILLER_43_125
*1306 FILLER_43_137
*1307 FILLER_43_149
*1308 FILLER_43_15
*1309 FILLER_43_161
*1310 FILLER_43_167
*1311 FILLER_43_169
*1312 FILLER_43_181
*1313 FILLER_43_193
*1314 FILLER_43_205
*1315 FILLER_43_217
*1316 FILLER_43_223
*1317 FILLER_43_225
*1318 FILLER_43_237
*1319 FILLER_43_249
*1320 FILLER_43_261
*1321 FILLER_43_27
*1322 FILLER_43_273
*1323 FILLER_43_279
*1324 FILLER_43_281
*1325 FILLER_43_293
*1326 FILLER_43_3
*1327 FILLER_43_39
*1328 FILLER_43_51
*1329 FILLER_43_55
*1330 FILLER_43_57
*1331 FILLER_43_69
*1332 FILLER_43_81
*1333 FILLER_43_93
*1334 FILLER_44_109
*1335 FILLER_44_121
*1336 FILLER_44_133
*1337 FILLER_44_139
*1338 FILLER_44_141
*1339 FILLER_44_15
*1340 FILLER_44_153
*1341 FILLER_44_165
*1342 FILLER_44_177
*1343 FILLER_44_189
*1344 FILLER_44_195
*1345 FILLER_44_197
*1346 FILLER_44_209
*1347 FILLER_44_221
*1348 FILLER_44_233
*1349 FILLER_44_245
*1350 FILLER_44_251
*1351 FILLER_44_253
*1352 FILLER_44_265
*1353 FILLER_44_27
*1354 FILLER_44_277
*1355 FILLER_44_289
*1356 FILLER_44_29
*1357 FILLER_44_297
*1358 FILLER_44_3
*1359 FILLER_44_41
*1360 FILLER_44_53
*1361 FILLER_44_65
*1362 FILLER_44_77
*1363 FILLER_44_83
*1364 FILLER_44_85
*1365 FILLER_44_97
*1366 FILLER_45_105
*1367 FILLER_45_111
*1368 FILLER_45_113
*1369 FILLER_45_125
*1370 FILLER_45_137
*1371 FILLER_45_149
*1372 FILLER_45_15
*1373 FILLER_45_161
*1374 FILLER_45_167
*1375 FILLER_45_169
*1376 FILLER_45_181
*1377 FILLER_45_193
*1378 FILLER_45_205
*1379 FILLER_45_217
*1380 FILLER_45_223
*1381 FILLER_45_225
*1382 FILLER_45_237
*1383 FILLER_45_249
*1384 FILLER_45_261
*1385 FILLER_45_27
*1386 FILLER_45_273
*1387 FILLER_45_279
*1388 FILLER_45_281
*1389 FILLER_45_293
*1390 FILLER_45_3
*1391 FILLER_45_39
*1392 FILLER_45_51
*1393 FILLER_45_55
*1394 FILLER_45_57
*1395 FILLER_45_69
*1396 FILLER_45_81
*1397 FILLER_45_93
*1398 FILLER_46_109
*1399 FILLER_46_121
*1400 FILLER_46_133
*1401 FILLER_46_139
*1402 FILLER_46_141
*1403 FILLER_46_15
*1404 FILLER_46_153
*1405 FILLER_46_165
*1406 FILLER_46_177
*1407 FILLER_46_189
*1408 FILLER_46_195
*1409 FILLER_46_197
*1410 FILLER_46_209
*1411 FILLER_46_221
*1412 FILLER_46_233
*1413 FILLER_46_245
*1414 FILLER_46_251
*1415 FILLER_46_253
*1416 FILLER_46_265
*1417 FILLER_46_27
*1418 FILLER_46_277
*1419 FILLER_46_289
*1420 FILLER_46_29
*1421 FILLER_46_297
*1422 FILLER_46_3
*1423 FILLER_46_41
*1424 FILLER_46_53
*1425 FILLER_46_65
*1426 FILLER_46_77
*1427 FILLER_46_83
*1428 FILLER_46_85
*1429 FILLER_46_97
*1430 FILLER_47_105
*1431 FILLER_47_111
*1432 FILLER_47_113
*1433 FILLER_47_125
*1434 FILLER_47_137
*1435 FILLER_47_149
*1436 FILLER_47_15
*1437 FILLER_47_161
*1438 FILLER_47_167
*1439 FILLER_47_169
*1440 FILLER_47_181
*1441 FILLER_47_193
*1442 FILLER_47_205
*1443 FILLER_47_217
*1444 FILLER_47_223
*1445 FILLER_47_225
*1446 FILLER_47_237
*1447 FILLER_47_249
*1448 FILLER_47_261
*1449 FILLER_47_27
*1450 FILLER_47_273
*1451 FILLER_47_279
*1452 FILLER_47_281
*1453 FILLER_47_293
*1454 FILLER_47_3
*1455 FILLER_47_39
*1456 FILLER_47_51
*1457 FILLER_47_55
*1458 FILLER_47_57
*1459 FILLER_47_69
*1460 FILLER_47_81
*1461 FILLER_47_93
*1462 FILLER_48_109
*1463 FILLER_48_121
*1464 FILLER_48_133
*1465 FILLER_48_139
*1466 FILLER_48_141
*1467 FILLER_48_15
*1468 FILLER_48_153
*1469 FILLER_48_165
*1470 FILLER_48_177
*1471 FILLER_48_189
*1472 FILLER_48_195
*1473 FILLER_48_197
*1474 FILLER_48_209
*1475 FILLER_48_221
*1476 FILLER_48_233
*1477 FILLER_48_245
*1478 FILLER_48_251
*1479 FILLER_48_253
*1480 FILLER_48_265
*1481 FILLER_48_27
*1482 FILLER_48_277
*1483 FILLER_48_289
*1484 FILLER_48_29
*1485 FILLER_48_297
*1486 FILLER_48_3
*1487 FILLER_48_41
*1488 FILLER_48_53
*1489 FILLER_48_65
*1490 FILLER_48_77
*1491 FILLER_48_83
*1492 FILLER_48_85
*1493 FILLER_48_97
*1494 FILLER_49_105
*1495 FILLER_49_111
*1496 FILLER_49_113
*1497 FILLER_49_125
*1498 FILLER_49_137
*1499 FILLER_49_149
*1500 FILLER_49_15
*1501 FILLER_49_161
*1502 FILLER_49_167
*1503 FILLER_49_169
*1504 FILLER_49_181
*1505 FILLER_49_193
*1506 FILLER_49_205
*1507 FILLER_49_217
*1508 FILLER_49_223
*1509 FILLER_49_225
*1510 FILLER_49_237
*1511 FILLER_49_249
*1512 FILLER_49_261
*1513 FILLER_49_27
*1514 FILLER_49_273
*1515 FILLER_49_279
*1516 FILLER_49_281
*1517 FILLER_49_293
*1518 FILLER_49_3
*1519 FILLER_49_39
*1520 FILLER_49_51
*1521 FILLER_49_55
*1522 FILLER_49_57
*1523 FILLER_49_69
*1524 FILLER_49_81
*1525 FILLER_49_93
*1526 FILLER_4_106
*1527 FILLER_4_118
*1528 FILLER_4_130
*1529 FILLER_4_138
*1530 FILLER_4_141
*1531 FILLER_4_153
*1532 FILLER_4_165
*1533 FILLER_4_177
*1534 FILLER_4_185
*1535 FILLER_4_189
*1536 FILLER_4_195
*1537 FILLER_4_197
*1538 FILLER_4_209
*1539 FILLER_4_221
*1540 FILLER_4_233
*1541 FILLER_4_24
*1542 FILLER_4_245
*1543 FILLER_4_251
*1544 FILLER_4_253
*1545 FILLER_4_265
*1546 FILLER_4_277
*1547 FILLER_4_289
*1548 FILLER_4_29
*1549 FILLER_4_297
*1550 FILLER_4_3
*1551 FILLER_4_41
*1552 FILLER_4_64
*1553 FILLER_4_7
*1554 FILLER_4_72
*1555 FILLER_4_81
*1556 FILLER_4_85
*1557 FILLER_4_94
*1558 FILLER_50_109
*1559 FILLER_50_121
*1560 FILLER_50_133
*1561 FILLER_50_139
*1562 FILLER_50_141
*1563 FILLER_50_15
*1564 FILLER_50_153
*1565 FILLER_50_165
*1566 FILLER_50_177
*1567 FILLER_50_189
*1568 FILLER_50_195
*1569 FILLER_50_197
*1570 FILLER_50_209
*1571 FILLER_50_221
*1572 FILLER_50_233
*1573 FILLER_50_245
*1574 FILLER_50_251
*1575 FILLER_50_253
*1576 FILLER_50_265
*1577 FILLER_50_27
*1578 FILLER_50_277
*1579 FILLER_50_289
*1580 FILLER_50_29
*1581 FILLER_50_297
*1582 FILLER_50_3
*1583 FILLER_50_41
*1584 FILLER_50_53
*1585 FILLER_50_65
*1586 FILLER_50_77
*1587 FILLER_50_83
*1588 FILLER_50_85
*1589 FILLER_50_97