*SPEF "ieee 1481-1999"
*DESIGN "moyes0_top_module"
*DATE "11:11:11 Fri 11 11, 1111"
*VENDOR "OpenRCX"
*PROGRAM "Parallel Extraction"
*VERSION "1.0"
*DESIGN_FLOW "NAME_SCOPE LOCAL" "PIN_CAP NONE"
*DIVIDER /
*DELIMITER :
*BUS_DELIMITER []
*T_UNIT 1 NS
*C_UNIT 1 PF
*R_UNIT 1 OHM
*L_UNIT 1 HENRY

*NAME_MAP
*1 io_in[0]
*2 io_in[1]
*3 io_in[2]
*4 io_in[3]
*5 io_in[4]
*6 io_in[5]
*7 io_in[6]
*8 io_in[7]
*9 io_out[0]
*10 io_out[1]
*11 io_out[2]
*12 io_out[3]
*13 io_out[4]
*14 net4
*15 net5
*16 io_out[7]
*19 ADR\[0\]
*20 ADR\[10\]
*21 ADR\[11\]
*22 ADR\[12\]
*23 ADR\[13\]
*24 ADR\[14\]
*25 ADR\[15\]
*26 ADR\[1\]
*27 ADR\[2\]
*28 ADR\[3\]
*29 ADR\[4\]
*30 ADR\[5\]
*31 ADR\[6\]
*32 ADR\[7\]
*33 ADR\[8\]
*34 ADR\[9\]
*35 BwasFFFF
*36 CPUphase\[0\]
*37 CPUphase\[1\]
*38 CPUphase\[2\]
*39 LEQ
*40 PCCarry
*41 PC\[0\]
*42 PC\[10\]
*43 PC\[11\]
*44 PC\[12\]
*45 PC\[13\]
*46 PC\[14\]
*47 PC\[15\]
*48 PC\[1\]
*49 PC\[2\]
*50 PC\[3\]
*51 PC\[4\]
*52 PC\[5\]
*53 PC\[6\]
*54 PC\[7\]
*55 PC\[8\]
*56 PC\[9\]
*57 TBorrow
*58 TMP\[10\]
*59 TMP\[11\]
*60 TMP\[12\]
*61 TMP\[13\]
*62 TMP\[14\]
*63 TMP\[15\]
*64 TMP\[1\]
*65 TMP\[2\]
*66 TMP\[3\]
*67 TMP\[4\]
*68 TMP\[5\]
*69 TMP\[6\]
*70 TMP\[7\]
*71 TMP\[8\]
*72 TMP\[9\]
*73 TZero
*74 UARTcount\[0\]
*75 UARTcount\[1\]
*76 UARTcount\[2\]
*77 UARTcount\[3\]
*78 UARTcount\[4\]
*79 UARTout
*80 _000_
*81 _001_
*82 _002_
*83 _003_
*84 _004_
*85 _005_
*86 _006_
*87 _007_
*88 _008_
*89 _009_
*90 _010_
*91 _011_
*92 _012_
*93 _013_
*94 _014_
*95 _015_
*96 _016_
*97 _017_
*98 _018_
*99 _019_
*100 _020_
*101 _021_
*102 _022_
*103 _023_
*104 _024_
*105 _025_
*106 _026_
*107 _027_
*108 _028_
*109 _029_
*110 _030_
*111 _031_
*112 _032_
*113 _033_
*114 _034_
*115 _035_
*116 _036_
*117 _037_
*118 _038_
*119 _039_
*120 _040_
*121 _041_
*122 _042_
*123 _043_
*124 _044_
*125 _045_
*126 _046_
*127 _047_
*128 _048_
*129 _049_
*130 _050_
*131 _051_
*132 _052_
*133 _053_
*134 _054_
*135 _055_
*136 _056_
*137 _057_
*138 _058_
*139 _059_
*140 _060_
*141 _061_
*142 _062_
*143 _063_
*144 _064_
*145 _065_
*146 _066_
*147 _067_
*148 _068_
*149 _069_
*150 _070_
*151 _071_
*152 _072_
*153 _073_
*154 _074_
*155 _075_
*156 _076_
*157 _077_
*158 _078_
*159 _079_
*160 _080_
*161 _081_
*162 _082_
*163 _083_
*164 _084_
*165 _085_
*166 _086_
*167 _087_
*168 _088_
*169 _089_
*170 _090_
*171 _091_
*172 _092_
*173 _093_
*174 _094_
*175 _095_
*176 _096_
*177 _097_
*178 _098_
*179 _099_
*180 _100_
*181 _101_
*182 _102_
*183 _103_
*184 _104_
*185 _105_
*186 _106_
*187 _107_
*188 _108_
*189 _109_
*190 _110_
*191 _111_
*192 _112_
*193 _113_
*194 _114_
*195 _115_
*196 _116_
*197 _117_
*198 _118_
*199 _119_
*200 _120_
*201 _121_
*202 _122_
*203 _123_
*204 _124_
*205 _125_
*206 _126_
*207 _127_
*208 _128_
*209 _129_
*210 _130_
*211 _131_
*212 _132_
*213 _133_
*214 _134_
*215 _135_
*216 _136_
*217 _137_
*218 _138_
*219 _139_
*220 _140_
*221 _141_
*222 _142_
*223 _143_
*224 _144_
*225 _145_
*226 _146_
*227 _147_
*228 _148_
*229 _149_
*230 _150_
*231 _151_
*232 _152_
*233 _153_
*234 _154_
*235 _155_
*236 _156_
*237 _157_
*238 _158_
*239 _159_
*240 _160_
*241 _161_
*242 _162_
*243 _163_
*244 _164_
*245 _165_
*246 _166_
*247 _167_
*248 _168_
*249 _169_
*250 _170_
*251 _171_
*252 _172_
*253 _173_
*254 _174_
*255 _175_
*256 _176_
*257 _177_
*258 _178_
*259 _179_
*260 _180_
*261 _181_
*262 _182_
*263 _183_
*264 _184_
*265 _185_
*266 _186_
*267 _187_
*268 _188_
*269 _189_
*270 _190_
*271 _191_
*272 _192_
*273 _193_
*274 _194_
*275 _195_
*276 _196_
*277 _197_
*278 _198_
*279 _199_
*280 _200_
*281 _201_
*282 _202_
*283 _203_
*284 _204_
*285 _205_
*286 _206_
*287 _207_
*288 _208_
*289 _209_
*290 _210_
*291 _211_
*292 _212_
*293 _213_
*294 _214_
*295 _215_
*296 _216_
*297 _217_
*298 _218_
*299 _219_
*300 _220_
*301 _221_
*302 _222_
*303 _223_
*304 _224_
*305 _225_
*306 _226_
*307 _227_
*308 _228_
*309 _229_
*310 _230_
*311 _231_
*312 _232_
*313 _233_
*314 _234_
*315 _235_
*316 _236_
*317 _237_
*318 _238_
*319 _239_
*320 _240_
*321 _241_
*322 _242_
*323 _243_
*324 clknet_0_io_in[0]
*325 clknet_3_0__leaf_io_in[0]
*326 clknet_3_1__leaf_io_in[0]
*327 clknet_3_2__leaf_io_in[0]
*328 clknet_3_3__leaf_io_in[0]
*329 clknet_3_4__leaf_io_in[0]
*330 clknet_3_5__leaf_io_in[0]
*331 clknet_3_6__leaf_io_in[0]
*332 clknet_3_7__leaf_io_in[0]
*333 net1
*334 net2
*335 net3
*336 out7
*337 spi\.CS0
*338 spi\.CS1
*339 spi\.CSreg
*340 spi\.Data
*341 spi\.EndOfPhase
*342 spi\.MOSI
*343 spi\.PrepOutput
*344 spi\.PresetCarry
*345 spi\.SPICLK
*346 spi\.SPIphase\[0\]
*347 spi\.SPIphase\[1\]
*348 spi\.SPIphase\[2\]
*349 spi\.SPIphase\[3\]
*350 spi\.SPIphase\[4\]
*351 spi\.SPIphase\[5\]
*352 spi\.SPIphase\[6\]
*353 spi\.ShiftAddr
*354 spi\.ShiftDataRead
*355 spi\.ShiftDataWrite
*356 FILLER_0_106
*357 FILLER_0_110
*358 FILLER_0_113
*359 FILLER_0_137
*360 FILLER_0_141
*361 FILLER_0_15
*362 FILLER_0_153
*363 FILLER_0_165
*364 FILLER_0_169
*365 FILLER_0_181
*366 FILLER_0_193
*367 FILLER_0_197
*368 FILLER_0_209
*369 FILLER_0_221
*370 FILLER_0_225
*371 FILLER_0_237
*372 FILLER_0_249
*373 FILLER_0_253
*374 FILLER_0_265
*375 FILLER_0_27
*376 FILLER_0_277
*377 FILLER_0_281
*378 FILLER_0_29
*379 FILLER_0_293
*380 FILLER_0_3
*381 FILLER_0_41
*382 FILLER_0_53
*383 FILLER_0_57
*384 FILLER_0_62
*385 FILLER_0_66
*386 FILLER_0_72
*387 FILLER_0_79
*388 FILLER_0_83
*389 FILLER_0_85
*390 FILLER_0_91
*391 FILLER_0_98
*392 FILLER_10_104
*393 FILLER_10_116
*394 FILLER_10_124
*395 FILLER_10_135
*396 FILLER_10_139
*397 FILLER_10_141
*398 FILLER_10_159
*399 FILLER_10_171
*400 FILLER_10_183
*401 FILLER_10_195
*402 FILLER_10_197
*403 FILLER_10_20
*404 FILLER_10_209
*405 FILLER_10_221
*406 FILLER_10_233
*407 FILLER_10_245
*408 FILLER_10_251
*409 FILLER_10_253
*410 FILLER_10_265
*411 FILLER_10_277
*412 FILLER_10_289
*413 FILLER_10_29
*414 FILLER_10_297
*415 FILLER_10_3
*416 FILLER_10_40
*417 FILLER_10_48
*418 FILLER_10_65
*419 FILLER_10_71
*420 FILLER_10_75
*421 FILLER_10_82
*422 FILLER_10_85
*423 FILLER_11_110
*424 FILLER_11_113
*425 FILLER_11_12
*426 FILLER_11_133
*427 FILLER_11_137
*428 FILLER_11_147
*429 FILLER_11_159
*430 FILLER_11_167
*431 FILLER_11_169
*432 FILLER_11_181
*433 FILLER_11_193
*434 FILLER_11_205
*435 FILLER_11_217
*436 FILLER_11_223
*437 FILLER_11_225
*438 FILLER_11_237
*439 FILLER_11_249
*440 FILLER_11_261
*441 FILLER_11_273
*442 FILLER_11_279
*443 FILLER_11_281
*444 FILLER_11_293
*445 FILLER_11_3
*446 FILLER_11_36
*447 FILLER_11_50
*448 FILLER_11_57
*449 FILLER_11_62
*450 FILLER_11_84
*451 FILLER_11_92
*452 FILLER_12_121
*453 FILLER_12_134
*454 FILLER_12_141
*455 FILLER_12_152
*456 FILLER_12_164
*457 FILLER_12_176
*458 FILLER_12_188
*459 FILLER_12_197
*460 FILLER_12_209
*461 FILLER_12_21
*462 FILLER_12_221
*463 FILLER_12_233
*464 FILLER_12_245
*465 FILLER_12_251
*466 FILLER_12_253
*467 FILLER_12_265
*468 FILLER_12_27
*469 FILLER_12_277
*470 FILLER_12_289
*471 FILLER_12_29
*472 FILLER_12_297
*473 FILLER_12_3
*474 FILLER_12_36
*475 FILLER_12_56
*476 FILLER_12_69
*477 FILLER_12_82
*478 FILLER_12_85
*479 FILLER_12_93
*480 FILLER_13_107
*481 FILLER_13_111
*482 FILLER_13_113
*483 FILLER_13_124
*484 FILLER_13_13
*485 FILLER_13_132
*486 FILLER_13_150
*487 FILLER_13_162
*488 FILLER_13_169
*489 FILLER_13_181
*490 FILLER_13_193
*491 FILLER_13_205
*492 FILLER_13_21
*493 FILLER_13_217
*494 FILLER_13_223
*495 FILLER_13_225
*496 FILLER_13_237
*497 FILLER_13_249
*498 FILLER_13_25
*499 FILLER_13_261
*500 FILLER_13_273
*501 FILLER_13_279
*502 FILLER_13_281
*503 FILLER_13_293
*504 FILLER_13_3
*505 FILLER_13_32
*506 FILLER_13_44
*507 FILLER_13_54
*508 FILLER_13_57
*509 FILLER_13_66
*510 FILLER_13_7
*511 FILLER_13_83
*512 FILLER_13_91
*513 FILLER_13_98
*514 FILLER_14_110
*515 FILLER_14_121
*516 FILLER_14_128
*517 FILLER_14_135
*518 FILLER_14_139
*519 FILLER_14_141
*520 FILLER_14_146
*521 FILLER_14_158
*522 FILLER_14_170
*523 FILLER_14_182
*524 FILLER_14_194
*525 FILLER_14_197
*526 FILLER_14_209
*527 FILLER_14_21
*528 FILLER_14_221
*529 FILLER_14_233
*530 FILLER_14_245
*531 FILLER_14_251
*532 FILLER_14_253
*533 FILLER_14_265
*534 FILLER_14_27
*535 FILLER_14_277
*536 FILLER_14_289
*537 FILLER_14_29
*538 FILLER_14_297
*539 FILLER_14_3
*540 FILLER_14_37
*541 FILLER_14_45
*542 FILLER_14_62
*543 FILLER_14_72
*544 FILLER_14_78
*545 FILLER_14_82
*546 FILLER_14_85
*547 FILLER_14_99
*548 FILLER_15_106
*549 FILLER_15_113
*550 FILLER_15_122
*551 FILLER_15_130
*552 FILLER_15_147
*553 FILLER_15_159
*554 FILLER_15_167
*555 FILLER_15_169
*556 FILLER_15_181
*557 FILLER_15_193
*558 FILLER_15_205
*559 FILLER_15_217
*560 FILLER_15_223
*561 FILLER_15_225
*562 FILLER_15_237
*563 FILLER_15_249
*564 FILLER_15_261
*565 FILLER_15_273
*566 FILLER_15_279
*567 FILLER_15_281
*568 FILLER_15_29
*569 FILLER_15_293
*570 FILLER_15_3
*571 FILLER_15_50
*572 FILLER_15_57
*573 FILLER_15_66
*574 FILLER_15_76
*575 FILLER_15_84
*576 FILLER_15_9
*577 FILLER_15_93
*578 FILLER_16_11
*579 FILLER_16_112
*580 FILLER_16_132
*581 FILLER_16_141
*582 FILLER_16_146
*583 FILLER_16_158
*584 FILLER_16_170
*585 FILLER_16_182
*586 FILLER_16_194
*587 FILLER_16_197
*588 FILLER_16_20
*589 FILLER_16_209
*590 FILLER_16_221
*591 FILLER_16_233
*592 FILLER_16_245
*593 FILLER_16_251
*594 FILLER_16_253
*595 FILLER_16_265
*596 FILLER_16_277
*597 FILLER_16_289
*598 FILLER_16_29
*599 FILLER_16_297
*600 FILLER_16_3
*601 FILLER_16_36
*602 FILLER_16_44
*603 FILLER_16_61
*604 FILLER_16_65
*605 FILLER_16_82
*606 FILLER_16_85
*607 FILLER_16_92
*608 FILLER_17_105
*609 FILLER_17_111
*610 FILLER_17_113
*611 FILLER_17_119
*612 FILLER_17_129
*613 FILLER_17_142
*614 FILLER_17_15
*615 FILLER_17_154
*616 FILLER_17_166
*617 FILLER_17_169
*618 FILLER_17_181
*619 FILLER_17_193
*620 FILLER_17_205
*621 FILLER_17_217
*622 FILLER_17_223
*623 FILLER_17_225
*624 FILLER_17_237
*625 FILLER_17_249
*626 FILLER_17_26
*627 FILLER_17_261
*628 FILLER_17_273
*629 FILLER_17_279
*630 FILLER_17_281
*631 FILLER_17_293
*632 FILLER_17_3
*633 FILLER_17_34
*634 FILLER_17_38
*635 FILLER_17_45
*636 FILLER_17_52
*637 FILLER_17_57
*638 FILLER_17_63
*639 FILLER_17_7
*640 FILLER_17_73
*641 FILLER_17_97
*642 FILLER_18_103
*643 FILLER_18_107
*644 FILLER_18_117
*645 FILLER_18_130
*646 FILLER_18_138
*647 FILLER_18_141
*648 FILLER_18_152
*649 FILLER_18_164
*650 FILLER_18_176
*651 FILLER_18_188
*652 FILLER_18_197
*653 FILLER_18_209
*654 FILLER_18_21
*655 FILLER_18_221
*656 FILLER_18_233
*657 FILLER_18_245
*658 FILLER_18_251
*659 FILLER_18_253
*660 FILLER_18_265
*661 FILLER_18_27
*662 FILLER_18_277
*663 FILLER_18_289
*664 FILLER_18_29
*665 FILLER_18_297
*666 FILLER_18_3
*667 FILLER_18_36
*668 FILLER_18_40
*669 FILLER_18_57
*670 FILLER_18_65
*671 FILLER_18_72
*672 FILLER_18_81
*673 FILLER_18_85
*674 FILLER_18_95
*675 FILLER_19_110
*676 FILLER_19_113
*677 FILLER_19_131
*678 FILLER_19_15
*679 FILLER_19_151
*680 FILLER_19_163
*681 FILLER_19_167
*682 FILLER_19_169
*683 FILLER_19_181
*684 FILLER_19_193
*685 FILLER_19_205
*686 FILLER_19_217
*687 FILLER_19_223
*688 FILLER_19_225
*689 FILLER_19_237
*690 FILLER_19_249
*691 FILLER_19_261
*692 FILLER_19_273
*693 FILLER_19_279
*694 FILLER_19_281
*695 FILLER_19_293
*696 FILLER_19_3
*697 FILLER_19_35
*698 FILLER_19_49
*699 FILLER_19_55
*700 FILLER_19_57
*701 FILLER_19_76
*702 FILLER_19_8
*703 FILLER_19_80
*704 FILLER_19_88
*705 FILLER_19_94
*706 FILLER_1_106
*707 FILLER_1_110
*708 FILLER_1_113
*709 FILLER_1_124
*710 FILLER_1_132
*711 FILLER_1_149
*712 FILLER_1_15
*713 FILLER_1_161
*714 FILLER_1_167
*715 FILLER_1_169
*716 FILLER_1_181
*717 FILLER_1_193
*718 FILLER_1_205
*719 FILLER_1_217
*720 FILLER_1_223
*721 FILLER_1_225
*722 FILLER_1_237
*723 FILLER_1_249
*724 FILLER_1_261
*725 FILLER_1_27
*726 FILLER_1_273
*727 FILLER_1_279
*728 FILLER_1_281
*729 FILLER_1_293
*730 FILLER_1_3
*731 FILLER_1_39
*732 FILLER_1_47
*733 FILLER_1_54
*734 FILLER_1_57
*735 FILLER_1_61
*736 FILLER_1_78
*737 FILLER_1_98
*738 FILLER_20_107
*739 FILLER_20_116
*740 FILLER_20_120
*741 FILLER_20_13
*742 FILLER_20_137
*743 FILLER_20_141
*744 FILLER_20_146
*745 FILLER_20_153
*746 FILLER_20_165
*747 FILLER_20_177
*748 FILLER_20_189
*749 FILLER_20_195
*750 FILLER_20_197
*751 FILLER_20_209
*752 FILLER_20_221
*753 FILLER_20_233
*754 FILLER_20_245
*755 FILLER_20_251
*756 FILLER_20_253
*757 FILLER_20_26
*758 FILLER_20_265
*759 FILLER_20_277
*760 FILLER_20_289
*761 FILLER_20_29
*762 FILLER_20_297
*763 FILLER_20_3
*764 FILLER_20_42
*765 FILLER_20_53
*766 FILLER_20_64
*767 FILLER_20_72
*768 FILLER_20_82
*769 FILLER_20_85
*770 FILLER_20_89
*771 FILLER_21_110
*772 FILLER_21_113
*773 FILLER_21_12
*774 FILLER_21_131
*775 FILLER_21_139
*776 FILLER_21_150
*777 FILLER_21_157
*778 FILLER_21_165
*779 FILLER_21_169
*780 FILLER_21_181
*781 FILLER_21_193
*782 FILLER_21_205
*783 FILLER_21_217
*784 FILLER_21_223
*785 FILLER_21_225
*786 FILLER_21_237
*787 FILLER_21_249
*788 FILLER_21_261
*789 FILLER_21_273
*790 FILLER_21_279
*791 FILLER_21_281
*792 FILLER_21_293
*793 FILLER_21_3
*794 FILLER_21_36
*795 FILLER_21_47
*796 FILLER_21_54
*797 FILLER_21_57
*798 FILLER_21_64
*799 FILLER_21_68
*800 FILLER_21_7
*801 FILLER_21_77
*802 FILLER_21_81
*803 FILLER_21_89
*804 FILLER_21_93
*805 FILLER_22_121
*806 FILLER_22_127
*807 FILLER_22_134
*808 FILLER_22_141
*809 FILLER_22_159
*810 FILLER_22_171
*811 FILLER_22_183
*812 FILLER_22_195
*813 FILLER_22_197
*814 FILLER_22_209
*815 FILLER_22_21
*816 FILLER_22_221
*817 FILLER_22_233
*818 FILLER_22_245
*819 FILLER_22_251
*820 FILLER_22_253
*821 FILLER_22_265
*822 FILLER_22_27
*823 FILLER_22_277
*824 FILLER_22_289
*825 FILLER_22_29
*826 FILLER_22_297
*827 FILLER_22_3
*828 FILLER_22_35
*829 FILLER_22_49
*830 FILLER_22_62
*831 FILLER_22_79
*832 FILLER_22_83
*833 FILLER_22_85
*834 FILLER_22_93
*835 FILLER_23_105
*836 FILLER_23_111
*837 FILLER_23_113
*838 FILLER_23_124
*839 FILLER_23_148
*840 FILLER_23_155
*841 FILLER_23_16
*842 FILLER_23_167
*843 FILLER_23_169
*844 FILLER_23_181
*845 FILLER_23_193
*846 FILLER_23_205
*847 FILLER_23_217
*848 FILLER_23_223
*849 FILLER_23_225
*850 FILLER_23_237
*851 FILLER_23_249
*852 FILLER_23_26
*853 FILLER_23_261
*854 FILLER_23_273
*855 FILLER_23_279
*856 FILLER_23_281
*857 FILLER_23_293
*858 FILLER_23_3
*859 FILLER_23_36
*860 FILLER_23_43
*861 FILLER_23_54
*862 FILLER_23_57
*863 FILLER_23_75
*864 FILLER_23_82
*865 FILLER_23_9
*866 FILLER_23_93
*867 FILLER_24_117
*868 FILLER_24_130
*869 FILLER_24_137
*870 FILLER_24_141
*871 FILLER_24_152
*872 FILLER_24_16
*873 FILLER_24_164
*874 FILLER_24_176
*875 FILLER_24_188
*876 FILLER_24_197
*877 FILLER_24_209
*878 FILLER_24_221
*879 FILLER_24_233
*880 FILLER_24_245
*881 FILLER_24_251
*882 FILLER_24_253
*883 FILLER_24_26
*884 FILLER_24_265
*885 FILLER_24_277
*886 FILLER_24_289
*887 FILLER_24_29
*888 FILLER_24_297
*889 FILLER_24_3
*890 FILLER_24_43
*891 FILLER_24_52
*892 FILLER_24_66
*893 FILLER_24_73
*894 FILLER_24_82
*895 FILLER_24_85
*896 FILLER_24_95
*897 FILLER_25_103
*898 FILLER_25_110
*899 FILLER_25_113
*900 FILLER_25_132
*901 FILLER_25_149
*902 FILLER_25_161
*903 FILLER_25_167
*904 FILLER_25_169
*905 FILLER_25_181
*906 FILLER_25_193
*907 FILLER_25_205
*908 FILLER_25_21
*909 FILLER_25_217
*910 FILLER_25_223
*911 FILLER_25_225
*912 FILLER_25_237
*913 FILLER_25_249
*914 FILLER_25_261
*915 FILLER_25_273
*916 FILLER_25_279
*917 FILLER_25_281
*918 FILLER_25_29
*919 FILLER_25_293
*920 FILLER_25_3
*921 FILLER_25_36
*922 FILLER_25_48
*923 FILLER_25_57
*924 FILLER_25_75
*925 FILLER_25_83
*926 FILLER_26_121
*927 FILLER_26_128
*928 FILLER_26_141
*929 FILLER_26_159
*930 FILLER_26_171
*931 FILLER_26_183
*932 FILLER_26_19
*933 FILLER_26_195
*934 FILLER_26_197
*935 FILLER_26_209
*936 FILLER_26_221
*937 FILLER_26_233
*938 FILLER_26_245
*939 FILLER_26_251
*940 FILLER_26_253
*941 FILLER_26_26
*942 FILLER_26_265
*943 FILLER_26_277
*944 FILLER_26_289
*945 FILLER_26_29
*946 FILLER_26_297
*947 FILLER_26_3
*948 FILLER_26_36
*949 FILLER_26_44
*950 FILLER_26_65
*951 FILLER_26_69
*952 FILLER_26_77
*953 FILLER_26_8
*954 FILLER_26_83
*955 FILLER_26_85
*956 FILLER_26_93
*957 FILLER_27_110
*958 FILLER_27_113
*959 FILLER_27_12
*960 FILLER_27_122
*961 FILLER_27_134
*962 FILLER_27_141
*963 FILLER_27_153
*964 FILLER_27_165
*965 FILLER_27_169
*966 FILLER_27_17
*967 FILLER_27_181
*968 FILLER_27_193
*969 FILLER_27_205
*970 FILLER_27_217
*971 FILLER_27_223
*972 FILLER_27_225
*973 FILLER_27_237
*974 FILLER_27_249
*975 FILLER_27_261
*976 FILLER_27_273
*977 FILLER_27_279
*978 FILLER_27_281
*979 FILLER_27_29
*980 FILLER_27_293
*981 FILLER_27_3
*982 FILLER_27_42
*983 FILLER_27_53
*984 FILLER_27_57
*985 FILLER_27_64
*986 FILLER_27_75
*987 FILLER_27_8
*988 FILLER_27_84
*989 FILLER_27_97
*990 FILLER_28_111
*991 FILLER_28_131
*992 FILLER_28_138
*993 FILLER_28_141
*994 FILLER_28_152
*995 FILLER_28_164
*996 FILLER_28_176
*997 FILLER_28_188
*998 FILLER_28_197
*999 FILLER_28_209
*1000 FILLER_28_21
*1001 FILLER_28_221
*1002 FILLER_28_233
*1003 FILLER_28_245
*1004 FILLER_28_251
*1005 FILLER_28_253
*1006 FILLER_28_265
*1007 FILLER_28_27
*1008 FILLER_28_277
*1009 FILLER_28_289
*1010 FILLER_28_29
*1011 FILLER_28_297
*1012 FILLER_28_3
*1013 FILLER_28_35
*1014 FILLER_28_49
*1015 FILLER_28_69
*1016 FILLER_28_82
*1017 FILLER_28_85
*1018 FILLER_28_90
*1019 FILLER_28_94
*1020 FILLER_29_100
*1021 FILLER_29_107
*1022 FILLER_29_11
*1023 FILLER_29_111
*1024 FILLER_29_113
*1025 FILLER_29_119
*1026 FILLER_29_129
*1027 FILLER_29_149
*1028 FILLER_29_161
*1029 FILLER_29_167
*1030 FILLER_29_169
*1031 FILLER_29_181
*1032 FILLER_29_193
*1033 FILLER_29_205
*1034 FILLER_29_217
*1035 FILLER_29_22
*1036 FILLER_29_223
*1037 FILLER_29_225
*1038 FILLER_29_237
*1039 FILLER_29_249
*1040 FILLER_29_261
*1041 FILLER_29_273
*1042 FILLER_29_279
*1043 FILLER_29_281
*1044 FILLER_29_293
*1045 FILLER_29_3
*1046 FILLER_29_31
*1047 FILLER_29_38
*1048 FILLER_29_53
*1049 FILLER_29_57
*1050 FILLER_29_7
*1051 FILLER_29_71
*1052 FILLER_29_87
*1053 FILLER_2_104
*1054 FILLER_2_122
*1055 FILLER_2_137
*1056 FILLER_2_141
*1057 FILLER_2_146
*1058 FILLER_2_158
*1059 FILLER_2_170
*1060 FILLER_2_182
*1061 FILLER_2_194
*1062 FILLER_2_197
*1063 FILLER_2_209
*1064 FILLER_2_21
*1065 FILLER_2_221
*1066 FILLER_2_233
*1067 FILLER_2_245
*1068 FILLER_2_25
*1069 FILLER_2_251
*1070 FILLER_2_253
*1071 FILLER_2_265
*1072 FILLER_2_277
*1073 FILLER_2_289
*1074 FILLER_2_29
*1075 FILLER_2_297
*1076 FILLER_2_3
*1077 FILLER_2_42
*1078 FILLER_2_46
*1079 FILLER_2_63
*1080 FILLER_2_71
*1081 FILLER_2_82
*1082 FILLER_2_85
*1083 FILLER_2_9
*1084 FILLER_2_96
*1085 FILLER_30_117
*1086 FILLER_30_124
*1087 FILLER_30_136
*1088 FILLER_30_141
*1089 FILLER_30_152
*1090 FILLER_30_164
*1091 FILLER_30_176
*1092 FILLER_30_188
*1093 FILLER_30_197
*1094 FILLER_30_209
*1095 FILLER_30_21
*1096 FILLER_30_221
*1097 FILLER_30_233
*1098 FILLER_30_245
*1099 FILLER_30_251
*1100 FILLER_30_253
*1101 FILLER_30_265
*1102 FILLER_30_27
*1103 FILLER_30_277
*1104 FILLER_30_289
*1105 FILLER_30_29
*1106 FILLER_30_297
*1107 FILLER_30_3
*1108 FILLER_30_36
*1109 FILLER_30_52
*1110 FILLER_30_64
*1111 FILLER_30_75
*1112 FILLER_30_83
*1113 FILLER_30_85
*1114 FILLER_30_89
*1115 FILLER_30_97
*1116 FILLER_31_103
*1117 FILLER_31_111
*1118 FILLER_31_113
*1119 FILLER_31_119
*1120 FILLER_31_129
*1121 FILLER_31_133
*1122 FILLER_31_14
*1123 FILLER_31_150
*1124 FILLER_31_157
*1125 FILLER_31_165
*1126 FILLER_31_169
*1127 FILLER_31_181
*1128 FILLER_31_193
*1129 FILLER_31_205
*1130 FILLER_31_217
*1131 FILLER_31_223
*1132 FILLER_31_225
*1133 FILLER_31_237
*1134 FILLER_31_249
*1135 FILLER_31_25
*1136 FILLER_31_261
*1137 FILLER_31_273
*1138 FILLER_31_279
*1139 FILLER_31_281
*1140 FILLER_31_293
*1141 FILLER_31_3
*1142 FILLER_31_31
*1143 FILLER_31_41
*1144 FILLER_31_48
*1145 FILLER_31_57
*1146 FILLER_31_75
*1147 FILLER_31_86
*1148 FILLER_31_9
*1149 FILLER_31_96
*1150 FILLER_32_107
*1151 FILLER_32_127
*1152 FILLER_32_134
*1153 FILLER_32_141
*1154 FILLER_32_152
*1155 FILLER_32_164
*1156 FILLER_32_176
*1157 FILLER_32_188
*1158 FILLER_32_197
*1159 FILLER_32_209
*1160 FILLER_32_21
*1161 FILLER_32_221
*1162 FILLER_32_233
*1163 FILLER_32_245
*1164 FILLER_32_251
*1165 FILLER_32_253
*1166 FILLER_32_265
*1167 FILLER_32_27
*1168 FILLER_32_277
*1169 FILLER_32_289
*1170 FILLER_32_29
*1171 FILLER_32_297
*1172 FILLER_32_3
*1173 FILLER_32_36
*1174 FILLER_32_44
*1175 FILLER_32_63
*1176 FILLER_32_82
*1177 FILLER_32_85
*1178 FILLER_32_91
*1179 FILLER_32_99
*1180 FILLER_33_110
*1181 FILLER_33_113
*1182 FILLER_33_130
*1183 FILLER_33_150
*1184 FILLER_33_162
*1185 FILLER_33_169
*1186 FILLER_33_181
*1187 FILLER_33_193
*1188 FILLER_33_205
*1189 FILLER_33_217
*1190 FILLER_33_223
*1191 FILLER_33_225
*1192 FILLER_33_237
*1193 FILLER_33_24
*1194 FILLER_33_249
*1195 FILLER_33_261
*1196 FILLER_33_273
*1197 FILLER_33_279
*1198 FILLER_33_281
*1199 FILLER_33_293
*1200 FILLER_33_3
*1201 FILLER_33_44
*1202 FILLER_33_57
*1203 FILLER_33_7
*1204 FILLER_33_75
*1205 FILLER_33_87
*1206 FILLER_33_93
*1207 FILLER_34_110
*1208 FILLER_34_114
*1209 FILLER_34_131
*1210 FILLER_34_139
*1211 FILLER_34_141
*1212 FILLER_34_146
*1213 FILLER_34_158
*1214 FILLER_34_16
*1215 FILLER_34_170
*1216 FILLER_34_182
*1217 FILLER_34_194
*1218 FILLER_34_197
*1219 FILLER_34_20
*1220 FILLER_34_209
*1221 FILLER_34_221
*1222 FILLER_34_233
*1223 FILLER_34_24
*1224 FILLER_34_245
*1225 FILLER_34_251
*1226 FILLER_34_253
*1227 FILLER_34_265
*1228 FILLER_34_277
*1229 FILLER_34_289
*1230 FILLER_34_29
*1231 FILLER_34_297
*1232 FILLER_34_3
*1233 FILLER_34_34
*1234 FILLER_34_46
*1235 FILLER_34_58
*1236 FILLER_34_72
*1237 FILLER_34_82
*1238 FILLER_34_85
*1239 FILLER_34_9
*1240 FILLER_34_90
*1241 FILLER_34_94
*1242 FILLER_34_98
*1243 FILLER_35_104
*1244 FILLER_35_113
*1245 FILLER_35_122
*1246 FILLER_35_134
*1247 FILLER_35_146
*1248 FILLER_35_15
*1249 FILLER_35_158
*1250 FILLER_35_166
*1251 FILLER_35_169
*1252 FILLER_35_181
*1253 FILLER_35_193
*1254 FILLER_35_205
*1255 FILLER_35_217
*1256 FILLER_35_223
*1257 FILLER_35_225
*1258 FILLER_35_237
*1259 FILLER_35_249
*1260 FILLER_35_261
*1261 FILLER_35_27
*1262 FILLER_35_273
*1263 FILLER_35_279
*1264 FILLER_35_281
*1265 FILLER_35_293
*1266 FILLER_35_3
*1267 FILLER_35_39
*1268 FILLER_35_51
*1269 FILLER_35_55
*1270 FILLER_35_57
*1271 FILLER_35_69
*1272 FILLER_35_75
*1273 FILLER_35_92
*1274 FILLER_36_109
*1275 FILLER_36_121
*1276 FILLER_36_133
*1277 FILLER_36_139
*1278 FILLER_36_141
*1279 FILLER_36_15
*1280 FILLER_36_153
*1281 FILLER_36_165
*1282 FILLER_36_177
*1283 FILLER_36_189
*1284 FILLER_36_195
*1285 FILLER_36_197
*1286 FILLER_36_209
*1287 FILLER_36_221
*1288 FILLER_36_233
*1289 FILLER_36_245
*1290 FILLER_36_251
*1291 FILLER_36_253
*1292 FILLER_36_265
*1293 FILLER_36_27
*1294 FILLER_36_277
*1295 FILLER_36_289
*1296 FILLER_36_29
*1297 FILLER_36_297
*1298 FILLER_36_3
*1299 FILLER_36_41
*1300 FILLER_36_53
*1301 FILLER_36_65
*1302 FILLER_36_77
*1303 FILLER_36_83
*1304 FILLER_36_85
*1305 FILLER_36_97
*1306 FILLER_37_106
*1307 FILLER_37_113
*1308 FILLER_37_125
*1309 FILLER_37_137
*1310 FILLER_37_149
*1311 FILLER_37_15
*1312 FILLER_37_161
*1313 FILLER_37_167
*1314 FILLER_37_169
*1315 FILLER_37_181
*1316 FILLER_37_193
*1317 FILLER_37_205
*1318 FILLER_37_217
*1319 FILLER_37_223
*1320 FILLER_37_225
*1321 FILLER_37_237
*1322 FILLER_37_249
*1323 FILLER_37_261
*1324 FILLER_37_27
*1325 FILLER_37_273
*1326 FILLER_37_279
*1327 FILLER_37_281
*1328 FILLER_37_293
*1329 FILLER_37_3
*1330 FILLER_37_39
*1331 FILLER_37_51
*1332 FILLER_37_55
*1333 FILLER_37_57
*1334 FILLER_37_65
*1335 FILLER_37_70
*1336 FILLER_37_82
*1337 FILLER_37_94
*1338 FILLER_38_109
*1339 FILLER_38_121
*1340 FILLER_38_133
*1341 FILLER_38_139
*1342 FILLER_38_141
*1343 FILLER_38_15
*1344 FILLER_38_153
*1345 FILLER_38_165
*1346 FILLER_38_177
*1347 FILLER_38_189
*1348 FILLER_38_195
*1349 FILLER_38_197
*1350 FILLER_38_209
*1351 FILLER_38_221
*1352 FILLER_38_233
*1353 FILLER_38_245
*1354 FILLER_38_251
*1355 FILLER_38_253
*1356 FILLER_38_265
*1357 FILLER_38_27
*1358 FILLER_38_277
*1359 FILLER_38_289
*1360 FILLER_38_29
*1361 FILLER_38_297
*1362 FILLER_38_3
*1363 FILLER_38_41
*1364 FILLER_38_53
*1365 FILLER_38_65
*1366 FILLER_38_77
*1367 FILLER_38_83
*1368 FILLER_38_85
*1369 FILLER_38_97
*1370 FILLER_39_105
*1371 FILLER_39_111
*1372 FILLER_39_113
*1373 FILLER_39_125
*1374 FILLER_39_137
*1375 FILLER_39_149
*1376 FILLER_39_15
*1377 FILLER_39_161
*1378 FILLER_39_167
*1379 FILLER_39_169
*1380 FILLER_39_181
*1381 FILLER_39_193
*1382 FILLER_39_205
*1383 FILLER_39_217
*1384 FILLER_39_223
*1385 FILLER_39_225
*1386 FILLER_39_237
*1387 FILLER_39_249
*1388 FILLER_39_261
*1389 FILLER_39_27
*1390 FILLER_39_273
*1391 FILLER_39_279
*1392 FILLER_39_281
*1393 FILLER_39_293
*1394 FILLER_39_3
*1395 FILLER_39_39
*1396 FILLER_39_51
*1397 FILLER_39_55
*1398 FILLER_39_57
*1399 FILLER_39_69
*1400 FILLER_39_81
*1401 FILLER_39_93
*1402 FILLER_3_101
*1403 FILLER_3_108
*1404 FILLER_3_113
*1405 FILLER_3_124
*1406 FILLER_3_141
*1407 FILLER_3_153
*1408 FILLER_3_16
*1409 FILLER_3_165
*1410 FILLER_3_169
*1411 FILLER_3_181
*1412 FILLER_3_193
*1413 FILLER_3_20
*1414 FILLER_3_205
*1415 FILLER_3_217
*1416 FILLER_3_223
*1417 FILLER_3_225
*1418 FILLER_3_237
*1419 FILLER_3_249
*1420 FILLER_3_26
*1421 FILLER_3_261
*1422 FILLER_3_273
*1423 FILLER_3_279
*1424 FILLER_3_281
*1425 FILLER_3_293
*1426 FILLER_3_3
*1427 FILLER_3_34
*1428 FILLER_3_51
*1429 FILLER_3_55
*1430 FILLER_3_57
*1431 FILLER_3_68
*1432 FILLER_3_72
*1433 FILLER_3_9
*1434 FILLER_3_93
*1435 FILLER_40_109
*1436 FILLER_40_121
*1437 FILLER_40_133
*1438 FILLER_40_139
*1439 FILLER_40_141
*1440 FILLER_40_15
*1441 FILLER_40_153
*1442 FILLER_40_165
*1443 FILLER_40_177
*1444 FILLER_40_189
*1445 FILLER_40_195
*1446 FILLER_40_197
*1447 FILLER_40_209
*1448 FILLER_40_221
*1449 FILLER_40_233
*1450 FILLER_40_245
*1451 FILLER_40_251
*1452 FILLER_40_253
*1453 FILLER_40_265
*1454 FILLER_40_27
*1455 FILLER_40_277
*1456 FILLER_40_289
*1457 FILLER_40_29
*1458 FILLER_40_297
*1459 FILLER_40_3
*1460 FILLER_40_41
*1461 FILLER_40_53
*1462 FILLER_40_65
*1463 FILLER_40_77
*1464 FILLER_40_83
*1465 FILLER_40_85
*1466 FILLER_40_97
*1467 FILLER_41_105
*1468 FILLER_41_11
*1469 FILLER_41_111
*1470 FILLER_41_113
*1471 FILLER_41_125
*1472 FILLER_41_137
*1473 FILLER_41_149
*1474 FILLER_41_161
*1475 FILLER_41_167
*1476 FILLER_41_169
*1477 FILLER_41_17
*1478 FILLER_41_181
*1479 FILLER_41_193
*1480 FILLER_41_205
*1481 FILLER_41_217
*1482 FILLER_41_223
*1483 FILLER_41_225
*1484 FILLER_41_237
*1485 FILLER_41_249
*1486 FILLER_41_261
*1487 FILLER_41_273
*1488 FILLER_41_279
*1489 FILLER_41_281
*1490 FILLER_41_29
*1491 FILLER_41_293
*1492 FILLER_41_3
*1493 FILLER_41_41
*1494 FILLER_41_53
*1495 FILLER_41_57
*1496 FILLER_41_69
*1497 FILLER_41_81
*1498 FILLER_41_93
*1499 FILLER_42_109
*1500 FILLER_42_121
*1501 FILLER_42_133
*1502 FILLER_42_139
*1503 FILLER_42_141
*1504 FILLER_42_15
*1505 FILLER_42_153
*1506 FILLER_42_165
*1507 FILLER_42_177
*1508 FILLER_42_189
*1509 FILLER_42_195
*1510 FILLER_42_197
*1511 FILLER_42_209
*1512 FILLER_42_221
*1513 FILLER_42_233
*1514 FILLER_42_245
*1515 FILLER_42_251
*1516 FILLER_42_253
*1517 FILLER_42_265
*1518 FILLER_42_27
*1519 FILLER_42_277
*1520 FILLER_42_289
*1521 FILLER_42_29
*1522 FILLER_42_297
*1523 FILLER_42_3
*1524 FILLER_42_41
*1525 FILLER_42_53
*1526 FILLER_42_65
*1527 FILLER_42_77
*1528 FILLER_42_83
*1529 FILLER_42_85
*1530 FILLER_42_97
*1531 FILLER_43_105
*1532 FILLER_43_111
*1533 FILLER_43_113
*1534 FILLER_43_125
*1535 FILLER_43_137
*1536 FILLER_43_149
*1537 FILLER_43_15
*1538 FILLER_43_161
*1539 FILLER_43_167
*1540 FILLER_43_169
*1541 FILLER_43_181
*1542 FILLER_43_193
*1543 FILLER_43_205
*1544 FILLER_43_217
*1545 FILLER_43_223
*1546 FILLER_43_225
*1547 FILLER_43_237
*1548 FILLER_43_249
*1549 FILLER_43_261
*1550 FILLER_43_27
*1551 FILLER_43_273
*1552 FILLER_43_279
*1553 FILLER_43_281
*1554 FILLER_43_293
*1555 FILLER_43_3
*1556 FILLER_43_39
*1557 FILLER_43_51
*1558 FILLER_43_55
*1559 FILLER_43_57
*1560 FILLER_43_69
*1561 FILLER_43_81
*1562 FILLER_43_93
*1563 FILLER_44_109
*1564 FILLER_44_121
*1565 FILLER_44_133
*1566 FILLER_44_139
*1567 FILLER_44_141
*1568 FILLER_44_15
*1569 FILLER_44_153
*1570 FILLER_44_165
*1571 FILLER_44_177
*1572 FILLER_44_189
*1573 FILLER_44_195
*1574 FILLER_44_197
*1575 FILLER_44_209
*1576 FILLER_44_221
*1577 FILLER_44_233
*1578 FILLER_44_245
*1579 FILLER_44_251
*1580 FILLER_44_253
*1581 FILLER_44_265
*1582 FILLER_44_27
*1583 FILLER_44_277
*1584 FILLER_44_289
*1585 FILLER_44_29
*1586 FILLER_44_297
*1587 FILLER_44_3
*1588 FILLER_44_41
*1589 FILLER_44_53
*1590 FILLER_44_65
*1591 FILLER_44_77
*1592 FILLER_44_83
*1593 FILLER_44_85
*1594 FILLER_44_97
*1595 FILLER_45_105
*1596 FILLER_45_111
*1597 FILLER_45_113
*1598 FILLER_45_125
*1599 FILLER_45_137
*1600 FILLER_45_149
*1601 FILLER_45_15
*1602 FILLER_45_161
*1603 FILLER_45_167
*1604 FILLER_45_169
*1605 FILLER_45_181
*1606 FILLER_45_193
*1607 FILLER_45_205
*1608 FILLER_45_217
*1609 FILLER_45_223
*1610 FILLER_45_225
*1611 FILLER_45_237
*1612 FILLER_45_249
*1613 FILLER_45_261
*1614 FILLER_45_27
*1615 FILLER_45_273
*1616 FILLER_45_279
*1617 FILLER_45_281
*1618 FILLER_45_293
*1619 FILLER_45_3
*1620 FILLER_45_39
*1621 FILLER_45_51
*1622 FILLER_45_55
*1623 FILLER_45_57
*1624 FILLER_45_69
*1625 FILLER_45_81
*1626 FILLER_45_93
*1627 FILLER_46_109
*1628 FILLER_46_121
*1629 FILLER_46_133
*1630 FILLER_46_139
*1631 FILLER_46_141
*1632 FILLER_46_15
*1633 FILLER_46_153
*1634 FILLER_46_165
*1635 FILLER_46_177
*1636 FILLER_46_189
*1637 FILLER_46_195
*1638 FILLER_46_197
*1639 FILLER_46_209
*1640 FILLER_46_221
*1641 FILLER_46_233
*1642 FILLER_46_245
*1643 FILLER_46_251
*1644 FILLER_46_253
*1645 FILLER_46_265
*1646 FILLER_46_27
*1647 FILLER_46_277
*1648 FILLER_46_289
*1649 FILLER_46_29
*1650 FILLER_46_297
*1651 FILLER_46_3
*1652 FILLER_46_41
*1653 FILLER_46_53
*1654 FILLER_46_65
*1655 FILLER_46_77
*1656 FILLER_46_83
*1657 FILLER_46_85
*1658 FILLER_46_97
*1659 FILLER_47_105
*1660 FILLER_47_111
*1661 FILLER_47_113
*1662 FILLER_47_125
*1663 FILLER_47_137
*1664 FILLER_47_149
*1665 FILLER_47_15
*1666 FILLER_47_161
*1667 FILLER_47_167
*1668 FILLER_47_169
*1669 FILLER_47_181
*1670 FILLER_47_193
*1671 FILLER_47_205
*1672 FILLER_47_217
*1673 FILLER_47_223
*1674 FILLER_47_225
*1675 FILLER_47_237
*1676 FILLER_47_249
*1677 FILLER_47_261
*1678 FILLER_47_27
*1679 FILLER_47_273
*1680 FILLER_47_279
*1681 FILLER_47_281
*1682 FILLER_47_293
*1683 FILLER_47_3
*1684 FILLER_47_39