*SPEF "ieee 1481-1999"
*DESIGN "msaghir_top_level"
*DATE "11:11:11 Fri 11 11, 1111"
*VENDOR "OpenRCX"
*PROGRAM "Parallel Extraction"
*VERSION "1.0"
*DESIGN_FLOW "NAME_SCOPE LOCAL" "PIN_CAP NONE"
*DIVIDER /
*DELIMITER :
*BUS_DELIMITER []
*T_UNIT 1 NS
*C_UNIT 1 PF
*R_UNIT 1 OHM
*L_UNIT 1 HENRY

*NAME_MAP
*1 io_in[0]
*2 io_in[1]
*3 io_in[2]
*4 io_in[3]
*5 io_in[4]
*6 io_in[5]
*7 io_in[6]
*8 io_in[7]
*9 io_out[0]
*10 io_out[1]
*11 io_out[2]
*12 io_out[3]
*13 io_out[4]
*14 io_out[5]
*15 io_out[6]
*16 net8
*19 _000_
*20 _001_
*21 _002_
*22 _003_
*23 _004_
*24 _005_
*25 _006_
*26 _007_
*27 _008_
*28 _009_
*29 _010_
*30 _011_
*31 _012_
*32 _013_
*33 _014_
*34 _015_
*35 _016_
*36 _017_
*37 _018_
*38 _019_
*39 _020_
*40 _021_
*41 _022_
*42 _023_
*43 _024_
*44 _025_
*45 _026_
*46 _027_
*47 _028_
*48 _029_
*49 _030_
*50 _031_
*51 _032_
*52 _033_
*53 _034_
*54 _035_
*55 _036_
*56 _037_
*57 _038_
*58 _039_
*59 _040_
*60 _041_
*61 _042_
*62 _043_
*63 _044_
*64 _045_
*65 _046_
*66 _047_
*67 _048_
*68 _049_
*69 _050_
*70 _051_
*71 _052_
*72 _053_
*73 _054_
*74 _055_
*75 _056_
*76 _057_
*77 _058_
*78 _059_
*79 _060_
*80 _061_
*81 _062_
*82 _063_
*83 _064_
*84 _065_
*85 _066_
*86 _067_
*87 _068_
*88 _069_
*89 _070_
*90 _071_
*91 _072_
*92 _073_
*93 _074_
*94 _075_
*95 _076_
*96 _077_
*97 _078_
*98 _079_
*99 _080_
*100 _081_
*101 _082_
*102 _083_
*103 _084_
*104 _085_
*105 _086_
*106 _087_
*107 _088_
*108 _089_
*109 _090_
*110 _091_
*111 _092_
*112 _093_
*113 _094_
*114 _095_
*115 _096_
*116 _097_
*117 _098_
*118 _099_
*119 _100_
*120 _101_
*121 _102_
*122 _103_
*123 _104_
*124 _105_
*125 _106_
*126 _107_
*127 _108_
*128 _109_
*129 _110_
*130 _111_
*131 _112_
*132 _113_
*133 _114_
*134 _115_
*135 _116_
*136 _117_
*137 _118_
*138 _119_
*139 _120_
*140 _121_
*141 _122_
*142 _123_
*143 _124_
*144 _125_
*145 _126_
*146 _127_
*147 _128_
*148 _129_
*149 _130_
*150 _131_
*151 _132_
*152 _133_
*153 _134_
*154 _135_
*155 _136_
*156 _137_
*157 _138_
*158 _139_
*159 _140_
*160 _141_
*161 _142_
*162 _143_
*163 _144_
*164 _145_
*165 _146_
*166 _147_
*167 _148_
*168 _149_
*169 _150_
*170 _151_
*171 _152_
*172 _153_
*173 _154_
*174 _155_
*175 _156_
*176 _157_
*177 _158_
*178 _159_
*179 _160_
*180 _161_
*181 _162_
*182 _163_
*183 _164_
*184 _165_
*185 _166_
*186 _167_
*187 _168_
*188 _169_
*189 _170_
*190 _171_
*191 _172_
*192 _173_
*193 _174_
*194 _175_
*195 _176_
*196 _177_
*197 _178_
*198 _179_
*199 _180_
*200 _181_
*201 _182_
*202 _183_
*203 _184_
*204 _185_
*205 _186_
*206 _187_
*207 _188_
*208 _189_
*209 _190_
*210 _191_
*211 _192_
*212 _193_
*213 _194_
*214 _195_
*215 _196_
*216 _197_
*217 _198_
*218 _199_
*219 _200_
*220 b0\.i_clk2Hz
*221 b1\.u0\.o_count\[1\]
*222 b1\.u0\.o_count\[2\]
*223 b1\.u0\.r_delay_counter\[0\]
*224 b1\.u0\.r_delay_counter\[10\]
*225 b1\.u0\.r_delay_counter\[11\]
*226 b1\.u0\.r_delay_counter\[12\]
*227 b1\.u0\.r_delay_counter\[1\]
*228 b1\.u0\.r_delay_counter\[2\]
*229 b1\.u0\.r_delay_counter\[3\]
*230 b1\.u0\.r_delay_counter\[4\]
*231 b1\.u0\.r_delay_counter\[5\]
*232 b1\.u0\.r_delay_counter\[6\]
*233 b1\.u0\.r_delay_counter\[7\]
*234 b1\.u0\.r_delay_counter\[8\]
*235 b1\.u0\.r_delay_counter\[9\]
*236 b1\.u1\.o_segment\[0\]
*237 b1\.u1\.o_segment\[1\]
*238 b1\.u1\.o_segment\[2\]
*239 b1\.u1\.o_segment\[3\]
*240 b1\.u1\.o_segment\[4\]
*241 b1\.u1\.o_segment\[5\]
*242 b1\.u16\.o_segment\[0\]
*243 b1\.u16\.o_segment\[1\]
*244 b1\.u16\.o_segment\[2\]
*245 b1\.u16\.o_segment\[3\]
*246 b1\.u16\.o_segment\[4\]
*247 b1\.u16\.o_segment\[5\]
*248 b1\.u16\.o_segment\[6\]
*249 b1\.u17\.i_in2\[3\]
*250 b1\.u17\.i_in2\[5\]
*251 b1\.u17\.i_in2\[6\]
*252 b1\.u17\.i_in3\[6\]
*253 b1\.u17\.i_in4\[0\]
*254 b1\.u17\.i_in4\[1\]
*255 b1\.u17\.i_in4\[2\]
*256 b1\.u17\.i_in4\[3\]
*257 b1\.u17\.i_in4\[4\]
*258 b1\.u17\.i_in4\[5\]
*259 b1\.u17\.i_in4\[6\]
*260 clknet_0_io_in[0]
*261 clknet_2_0__leaf_io_in[0]
*262 clknet_2_1__leaf_io_in[0]
*263 clknet_2_2__leaf_io_in[0]
*264 clknet_2_3__leaf_io_in[0]
*265 net1
*266 net2
*267 net3
*268 net4
*269 net5
*270 net6
*271 net7
*272 ANTENNA_1
*273 FILLER_0_103
*274 FILLER_0_110
*275 FILLER_0_113
*276 FILLER_0_120
*277 FILLER_0_129
*278 FILLER_0_137
*279 FILLER_0_141
*280 FILLER_0_147
*281 FILLER_0_154
*282 FILLER_0_166
*283 FILLER_0_169
*284 FILLER_0_181
*285 FILLER_0_193
*286 FILLER_0_197
*287 FILLER_0_209
*288 FILLER_0_221
*289 FILLER_0_225
*290 FILLER_0_237
*291 FILLER_0_249
*292 FILLER_0_253
*293 FILLER_0_26
*294 FILLER_0_265
*295 FILLER_0_277
*296 FILLER_0_281
*297 FILLER_0_29
*298 FILLER_0_293
*299 FILLER_0_3
*300 FILLER_0_47
*301 FILLER_0_54
*302 FILLER_0_57
*303 FILLER_0_75
*304 FILLER_0_82
*305 FILLER_0_85
*306 FILLER_0_9
*307 FILLER_10_105
*308 FILLER_10_109
*309 FILLER_10_117
*310 FILLER_10_125
*311 FILLER_10_130
*312 FILLER_10_138
*313 FILLER_10_141
*314 FILLER_10_162
*315 FILLER_10_174
*316 FILLER_10_186
*317 FILLER_10_194
*318 FILLER_10_197
*319 FILLER_10_209
*320 FILLER_10_221
*321 FILLER_10_233
*322 FILLER_10_245
*323 FILLER_10_251
*324 FILLER_10_253
*325 FILLER_10_26
*326 FILLER_10_265
*327 FILLER_10_277
*328 FILLER_10_289
*329 FILLER_10_29
*330 FILLER_10_297
*331 FILLER_10_3
*332 FILLER_10_41
*333 FILLER_10_49
*334 FILLER_10_66
*335 FILLER_10_78
*336 FILLER_10_82
*337 FILLER_10_85
*338 FILLER_10_9
*339 FILLER_10_92
*340 FILLER_10_99
*341 FILLER_11_101
*342 FILLER_11_110
*343 FILLER_11_113
*344 FILLER_11_128
*345 FILLER_11_140
*346 FILLER_11_152
*347 FILLER_11_164
*348 FILLER_11_169
*349 FILLER_11_17
*350 FILLER_11_181
*351 FILLER_11_193
*352 FILLER_11_205
*353 FILLER_11_217
*354 FILLER_11_223
*355 FILLER_11_225
*356 FILLER_11_237
*357 FILLER_11_249
*358 FILLER_11_261
*359 FILLER_11_273
*360 FILLER_11_279
*361 FILLER_11_281
*362 FILLER_11_293
*363 FILLER_11_3
*364 FILLER_11_34
*365 FILLER_11_54
*366 FILLER_11_57
*367 FILLER_11_75
*368 FILLER_11_9
*369 FILLER_11_92
*370 FILLER_12_102
*371 FILLER_12_113
*372 FILLER_12_119
*373 FILLER_12_123
*374 FILLER_12_131
*375 FILLER_12_136
*376 FILLER_12_141
*377 FILLER_12_149
*378 FILLER_12_161
*379 FILLER_12_173
*380 FILLER_12_185
*381 FILLER_12_193
*382 FILLER_12_197
*383 FILLER_12_209
*384 FILLER_12_21
*385 FILLER_12_221
*386 FILLER_12_233
*387 FILLER_12_245
*388 FILLER_12_251
*389 FILLER_12_253
*390 FILLER_12_265
*391 FILLER_12_27
*392 FILLER_12_277
*393 FILLER_12_289
*394 FILLER_12_29
*395 FILLER_12_297
*396 FILLER_12_3
*397 FILLER_12_47
*398 FILLER_12_67
*399 FILLER_12_73
*400 FILLER_12_82
*401 FILLER_12_85
*402 FILLER_12_90
*403 FILLER_13_111
*404 FILLER_13_113
*405 FILLER_13_118
*406 FILLER_13_130
*407 FILLER_13_142
*408 FILLER_13_154
*409 FILLER_13_158
*410 FILLER_13_162
*411 FILLER_13_169
*412 FILLER_13_181
*413 FILLER_13_193
*414 FILLER_13_205
*415 FILLER_13_21
*416 FILLER_13_217
*417 FILLER_13_223
*418 FILLER_13_225
*419 FILLER_13_237
*420 FILLER_13_249
*421 FILLER_13_261
*422 FILLER_13_27
*423 FILLER_13_273
*424 FILLER_13_279
*425 FILLER_13_281
*426 FILLER_13_293
*427 FILLER_13_3
*428 FILLER_13_44
*429 FILLER_13_57
*430 FILLER_13_75
*431 FILLER_13_91
*432 FILLER_13_99
*433 FILLER_14_100
*434 FILLER_14_106
*435 FILLER_14_110
*436 FILLER_14_117
*437 FILLER_14_129
*438 FILLER_14_137
*439 FILLER_14_141
*440 FILLER_14_152
*441 FILLER_14_164
*442 FILLER_14_176
*443 FILLER_14_188
*444 FILLER_14_197
*445 FILLER_14_209
*446 FILLER_14_21
*447 FILLER_14_221
*448 FILLER_14_233
*449 FILLER_14_245
*450 FILLER_14_251
*451 FILLER_14_253
*452 FILLER_14_265
*453 FILLER_14_27
*454 FILLER_14_277
*455 FILLER_14_289
*456 FILLER_14_29
*457 FILLER_14_297
*458 FILLER_14_3
*459 FILLER_14_41
*460 FILLER_14_63
*461 FILLER_14_75
*462 FILLER_14_83
*463 FILLER_14_85
*464 FILLER_14_93
*465 FILLER_15_104
*466 FILLER_15_113
*467 FILLER_15_119
*468 FILLER_15_125
*469 FILLER_15_137
*470 FILLER_15_149
*471 FILLER_15_161
*472 FILLER_15_167
*473 FILLER_15_169
*474 FILLER_15_17
*475 FILLER_15_181
*476 FILLER_15_193
*477 FILLER_15_205
*478 FILLER_15_217
*479 FILLER_15_22
*480 FILLER_15_223
*481 FILLER_15_225
*482 FILLER_15_237
*483 FILLER_15_249
*484 FILLER_15_261
*485 FILLER_15_273
*486 FILLER_15_279
*487 FILLER_15_281
*488 FILLER_15_29
*489 FILLER_15_293
*490 FILLER_15_3
*491 FILLER_15_41
*492 FILLER_15_53
*493 FILLER_15_57
*494 FILLER_15_69
*495 FILLER_15_75
*496 FILLER_15_84
*497 FILLER_15_9
*498 FILLER_16_104
*499 FILLER_16_110
*500 FILLER_16_117
*501 FILLER_16_12
*502 FILLER_16_128
*503 FILLER_16_141
*504 FILLER_16_149
*505 FILLER_16_161
*506 FILLER_16_173
*507 FILLER_16_185
*508 FILLER_16_193
*509 FILLER_16_197
*510 FILLER_16_209
*511 FILLER_16_221
*512 FILLER_16_233
*513 FILLER_16_245
*514 FILLER_16_25
*515 FILLER_16_251
*516 FILLER_16_253
*517 FILLER_16_265
*518 FILLER_16_277
*519 FILLER_16_289
*520 FILLER_16_29
*521 FILLER_16_297
*522 FILLER_16_3
*523 FILLER_16_40
*524 FILLER_16_48
*525 FILLER_16_62
*526 FILLER_16_82
*527 FILLER_16_85
*528 FILLER_16_95
*529 FILLER_17_107
*530 FILLER_17_111
*531 FILLER_17_113
*532 FILLER_17_118
*533 FILLER_17_130
*534 FILLER_17_142
*535 FILLER_17_154
*536 FILLER_17_166
*537 FILLER_17_169
*538 FILLER_17_181
*539 FILLER_17_193
*540 FILLER_17_205
*541 FILLER_17_217
*542 FILLER_17_223
*543 FILLER_17_225
*544 FILLER_17_23
*545 FILLER_17_237
*546 FILLER_17_249
*547 FILLER_17_261
*548 FILLER_17_273
*549 FILLER_17_279
*550 FILLER_17_281
*551 FILLER_17_293
*552 FILLER_17_3
*553 FILLER_17_32
*554 FILLER_17_39
*555 FILLER_17_46
*556 FILLER_17_54
*557 FILLER_17_57
*558 FILLER_17_65
*559 FILLER_17_76
*560 FILLER_17_88
*561 FILLER_17_9
*562 FILLER_18_10
*563 FILLER_18_108
*564 FILLER_18_120
*565 FILLER_18_132
*566 FILLER_18_141
*567 FILLER_18_153
*568 FILLER_18_165
*569 FILLER_18_177
*570 FILLER_18_18
*571 FILLER_18_189
*572 FILLER_18_195
*573 FILLER_18_197
*574 FILLER_18_209
*575 FILLER_18_221
*576 FILLER_18_233
*577 FILLER_18_245
*578 FILLER_18_25
*579 FILLER_18_251
*580 FILLER_18_253
*581 FILLER_18_265
*582 FILLER_18_277
*583 FILLER_18_289
*584 FILLER_18_29
*585 FILLER_18_297
*586 FILLER_18_3
*587 FILLER_18_34
*588 FILLER_18_40
*589 FILLER_18_48
*590 FILLER_18_60
*591 FILLER_18_71
*592 FILLER_18_83
*593 FILLER_18_85
*594 FILLER_18_96
*595 FILLER_19_105
*596 FILLER_19_11
*597 FILLER_19_111
*598 FILLER_19_113
*599 FILLER_19_125
*600 FILLER_19_137
*601 FILLER_19_149
*602 FILLER_19_161
*603 FILLER_19_167
*604 FILLER_19_169
*605 FILLER_19_181
*606 FILLER_19_193
*607 FILLER_19_20
*608 FILLER_19_205
*609 FILLER_19_217
*610 FILLER_19_223
*611 FILLER_19_225
*612 FILLER_19_237
*613 FILLER_19_249
*614 FILLER_19_261
*615 FILLER_19_273
*616 FILLER_19_279
*617 FILLER_19_281
*618 FILLER_19_29
*619 FILLER_19_293
*620 FILLER_19_3
*621 FILLER_19_41
*622 FILLER_19_53
*623 FILLER_19_57
*624 FILLER_19_69
*625 FILLER_19_81
*626 FILLER_19_93
*627 FILLER_1_105
*628 FILLER_1_111
*629 FILLER_1_113
*630 FILLER_1_120
*631 FILLER_1_129
*632 FILLER_1_141
*633 FILLER_1_148
*634 FILLER_1_160
*635 FILLER_1_169
*636 FILLER_1_174
*637 FILLER_1_186
*638 FILLER_1_198
*639 FILLER_1_21
*640 FILLER_1_210
*641 FILLER_1_222
*642 FILLER_1_225
*643 FILLER_1_237
*644 FILLER_1_249
*645 FILLER_1_25
*646 FILLER_1_261
*647 FILLER_1_273
*648 FILLER_1_279
*649 FILLER_1_281
*650 FILLER_1_293
*651 FILLER_1_3
*652 FILLER_1_31
*653 FILLER_1_48
*654 FILLER_1_57
*655 FILLER_1_75
*656 FILLER_1_95
*657 FILLER_20_105
*658 FILLER_20_117
*659 FILLER_20_129
*660 FILLER_20_13
*661 FILLER_20_135
*662 FILLER_20_139
*663 FILLER_20_141
*664 FILLER_20_168
*665 FILLER_20_180
*666 FILLER_20_192
*667 FILLER_20_197
*668 FILLER_20_209
*669 FILLER_20_221
*670 FILLER_20_233
*671 FILLER_20_245
*672 FILLER_20_251
*673 FILLER_20_253
*674 FILLER_20_26
*675 FILLER_20_265
*676 FILLER_20_277
*677 FILLER_20_289
*678 FILLER_20_29
*679 FILLER_20_297
*680 FILLER_20_3
*681 FILLER_20_35
*682 FILLER_20_47
*683 FILLER_20_59
*684 FILLER_20_71
*685 FILLER_20_82
*686 FILLER_20_85
*687 FILLER_20_93
*688 FILLER_21_102
*689 FILLER_21_106
*690 FILLER_21_113
*691 FILLER_21_125
*692 FILLER_21_137
*693 FILLER_21_149
*694 FILLER_21_156
*695 FILLER_21_16
*696 FILLER_21_169
*697 FILLER_21_181
*698 FILLER_21_193
*699 FILLER_21_205
*700 FILLER_21_217
*701 FILLER_21_22
*702 FILLER_21_223
*703 FILLER_21_225
*704 FILLER_21_237
*705 FILLER_21_249
*706 FILLER_21_261
*707 FILLER_21_273
*708 FILLER_21_279
*709 FILLER_21_28
*710 FILLER_21_281
*711 FILLER_21_293
*712 FILLER_21_3
*713 FILLER_21_38
*714 FILLER_21_49
*715 FILLER_21_55
*716 FILLER_21_57
*717 FILLER_21_68
*718 FILLER_21_82
*719 FILLER_21_94
*720 FILLER_22_104
*721 FILLER_22_115
*722 FILLER_22_12
*723 FILLER_22_127
*724 FILLER_22_139
*725 FILLER_22_141
*726 FILLER_22_153
*727 FILLER_22_16
*728 FILLER_22_165
*729 FILLER_22_177
*730 FILLER_22_189
*731 FILLER_22_195
*732 FILLER_22_197
*733 FILLER_22_20
*734 FILLER_22_209
*735 FILLER_22_221
*736 FILLER_22_233
*737 FILLER_22_245
*738 FILLER_22_251
*739 FILLER_22_253
*740 FILLER_22_26
*741 FILLER_22_265
*742 FILLER_22_277
*743 FILLER_22_289
*744 FILLER_22_29
*745 FILLER_22_297
*746 FILLER_22_3
*747 FILLER_22_39
*748 FILLER_22_49
*749 FILLER_22_61
*750 FILLER_22_76
*751 FILLER_22_8
*752 FILLER_22_85
*753 FILLER_22_92
*754 FILLER_23_102
*755 FILLER_23_109
*756 FILLER_23_113
*757 FILLER_23_125
*758 FILLER_23_137
*759 FILLER_23_14
*760 FILLER_23_149
*761 FILLER_23_161
*762 FILLER_23_167
*763 FILLER_23_169
*764 FILLER_23_181
*765 FILLER_23_193
*766 FILLER_23_205
*767 FILLER_23_217
*768 FILLER_23_22
*769 FILLER_23_223
*770 FILLER_23_225
*771 FILLER_23_237
*772 FILLER_23_249
*773 FILLER_23_261
*774 FILLER_23_273
*775 FILLER_23_279
*776 FILLER_23_281
*777 FILLER_23_293
*778 FILLER_23_3
*779 FILLER_23_32
*780 FILLER_23_50
*781 FILLER_23_57
*782 FILLER_23_69
*783 FILLER_23_86
*784 FILLER_23_98
*785 FILLER_24_105
*786 FILLER_24_11
*787 FILLER_24_113
*788 FILLER_24_123
*789 FILLER_24_135
*790 FILLER_24_139
*791 FILLER_24_141
*792 FILLER_24_153
*793 FILLER_24_165
*794 FILLER_24_177
*795 FILLER_24_189
*796 FILLER_24_19
*797 FILLER_24_195
*798 FILLER_24_197
*799 FILLER_24_209
*800 FILLER_24_221
*801 FILLER_24_233
*802 FILLER_24_245
*803 FILLER_24_25
*804 FILLER_24_251
*805 FILLER_24_253
*806 FILLER_24_265
*807 FILLER_24_277
*808 FILLER_24_289
*809 FILLER_24_29
*810 FILLER_24_297
*811 FILLER_24_3
*812 FILLER_24_36
*813 FILLER_24_43
*814 FILLER_24_55
*815 FILLER_24_67
*816 FILLER_24_76
*817 FILLER_24_85
*818 FILLER_24_89
*819 FILLER_24_93
*820 FILLER_25_105
*821 FILLER_25_111
*822 FILLER_25_113
*823 FILLER_25_125
*824 FILLER_25_13
*825 FILLER_25_137
*826 FILLER_25_149
*827 FILLER_25_161
*828 FILLER_25_167
*829 FILLER_25_169
*830 FILLER_25_181
*831 FILLER_25_193
*832 FILLER_25_205
*833 FILLER_25_217
*834 FILLER_25_22
*835 FILLER_25_223
*836 FILLER_25_225
*837 FILLER_25_237
*838 FILLER_25_249
*839 FILLER_25_261
*840 FILLER_25_273
*841 FILLER_25_279
*842 FILLER_25_281
*843 FILLER_25_293
*844 FILLER_25_3
*845 FILLER_25_30
*846 FILLER_25_37
*847 FILLER_25_49
*848 FILLER_25_55
*849 FILLER_25_57
*850 FILLER_25_69
*851 FILLER_25_7
*852 FILLER_25_81
*853 FILLER_25_93
*854 FILLER_26_101
*855 FILLER_26_113
*856 FILLER_26_129
*857 FILLER_26_137
*858 FILLER_26_141
*859 FILLER_26_15
*860 FILLER_26_153
*861 FILLER_26_165
*862 FILLER_26_177
*863 FILLER_26_189
*864 FILLER_26_19
*865 FILLER_26_195
*866 FILLER_26_197
*867 FILLER_26_209
*868 FILLER_26_221
*869 FILLER_26_233
*870 FILLER_26_245
*871 FILLER_26_251
*872 FILLER_26_253
*873 FILLER_26_26
*874 FILLER_26_265
*875 FILLER_26_277
*876 FILLER_26_289
*877 FILLER_26_29
*878 FILLER_26_297
*879 FILLER_26_3
*880 FILLER_26_48
*881 FILLER_26_60
*882 FILLER_26_72
*883 FILLER_26_85
*884 FILLER_26_94
*885 FILLER_27_107
*886 FILLER_27_11
*887 FILLER_27_111
*888 FILLER_27_113
*889 FILLER_27_125
*890 FILLER_27_137
*891 FILLER_27_149
*892 FILLER_27_161
*893 FILLER_27_167
*894 FILLER_27_169
*895 FILLER_27_181
*896 FILLER_27_19
*897 FILLER_27_193
*898 FILLER_27_205
*899 FILLER_27_217
*900 FILLER_27_223
*901 FILLER_27_225
*902 FILLER_27_237
*903 FILLER_27_249
*904 FILLER_27_261
*905 FILLER_27_273
*906 FILLER_27_279
*907 FILLER_27_281
*908 FILLER_27_293
*909 FILLER_27_3
*910 FILLER_27_38
*911 FILLER_27_51
*912 FILLER_27_55
*913 FILLER_27_57
*914 FILLER_27_62
*915 FILLER_27_66
*916 FILLER_27_70
*917 FILLER_27_82
*918 FILLER_27_88
*919 FILLER_27_95
*920 FILLER_28_107
*921 FILLER_28_11
*922 FILLER_28_119
*923 FILLER_28_131
*924 FILLER_28_139
*925 FILLER_28_141
*926 FILLER_28_153
*927 FILLER_28_165
*928 FILLER_28_17
*929 FILLER_28_177
*930 FILLER_28_189
*931 FILLER_28_195
*932 FILLER_28_197
*933 FILLER_28_209
*934 FILLER_28_221
*935 FILLER_28_233
*936 FILLER_28_245
*937 FILLER_28_251
*938 FILLER_28_253
*939 FILLER_28_26
*940 FILLER_28_265
*941 FILLER_28_277
*942 FILLER_28_289
*943 FILLER_28_29
*944 FILLER_28_297
*945 FILLER_28_3
*946 FILLER_28_42
*947 FILLER_28_51
*948 FILLER_28_63
*949 FILLER_28_71
*950 FILLER_28_77
*951 FILLER_28_83
*952 FILLER_28_85
*953 FILLER_28_97
*954 FILLER_29_105
*955 FILLER_29_111
*956 FILLER_29_113
*957 FILLER_29_125
*958 FILLER_29_137
*959 FILLER_29_149
*960 FILLER_29_15
*961 FILLER_29_161
*962 FILLER_29_167
*963 FILLER_29_169
*964 FILLER_29_181
*965 FILLER_29_193
*966 FILLER_29_205
*967 FILLER_29_217
*968 FILLER_29_223
*969 FILLER_29_225
*970 FILLER_29_237
*971 FILLER_29_249
*972 FILLER_29_261
*973 FILLER_29_273
*974 FILLER_29_279
*975 FILLER_29_281
*976 FILLER_29_293
*977 FILLER_29_3
*978 FILLER_29_34
*979 FILLER_29_46
*980 FILLER_29_54
*981 FILLER_29_57
*982 FILLER_29_69
*983 FILLER_29_81
*984 FILLER_29_93
*985 FILLER_2_103
*986 FILLER_2_110
*987 FILLER_2_119
*988 FILLER_2_128
*989 FILLER_2_135
*990 FILLER_2_139
*991 FILLER_2_141
*992 FILLER_2_153
*993 FILLER_2_159
*994 FILLER_2_171
*995 FILLER_2_183
*996 FILLER_2_195
*997 FILLER_2_197
*998 FILLER_2_209
*999 FILLER_2_21
*1000 FILLER_2_221
*1001 FILLER_2_233
*1002 FILLER_2_245
*1003 FILLER_2_251
*1004 FILLER_2_253
*1005 FILLER_2_265
*1006 FILLER_2_27
*1007 FILLER_2_277
*1008 FILLER_2_289
*1009 FILLER_2_29
*1010 FILLER_2_297
*1011 FILLER_2_3
*1012 FILLER_2_41
*1013 FILLER_2_65
*1014 FILLER_2_73
*1015 FILLER_2_82
*1016 FILLER_2_85
*1017 FILLER_30_109
*1018 FILLER_30_113
*1019 FILLER_30_117
*1020 FILLER_30_129
*1021 FILLER_30_137
*1022 FILLER_30_141
*1023 FILLER_30_15
*1024 FILLER_30_153
*1025 FILLER_30_165
*1026 FILLER_30_177
*1027 FILLER_30_189
*1028 FILLER_30_195
*1029 FILLER_30_197
*1030 FILLER_30_209
*1031 FILLER_30_221
*1032 FILLER_30_233
*1033 FILLER_30_245
*1034 FILLER_30_251
*1035 FILLER_30_253
*1036 FILLER_30_265
*1037 FILLER_30_27
*1038 FILLER_30_277
*1039 FILLER_30_289
*1040 FILLER_30_29
*1041 FILLER_30_297
*1042 FILLER_30_3
*1043 FILLER_30_41
*1044 FILLER_30_46
*1045 FILLER_30_58
*1046 FILLER_30_70
*1047 FILLER_30_82
*1048 FILLER_30_85
*1049 FILLER_30_9
*1050 FILLER_30_97
*1051 FILLER_31_106
*1052 FILLER_31_113
*1053 FILLER_31_125
*1054 FILLER_31_137
*1055 FILLER_31_149
*1056 FILLER_31_15
*1057 FILLER_31_161
*1058 FILLER_31_167
*1059 FILLER_31_169
*1060 FILLER_31_181
*1061 FILLER_31_193
*1062 FILLER_31_205
*1063 FILLER_31_217
*1064 FILLER_31_223
*1065 FILLER_31_225
*1066 FILLER_31_237
*1067 FILLER_31_249
*1068 FILLER_31_261
*1069 FILLER_31_27
*1070 FILLER_31_273
*1071 FILLER_31_279
*1072 FILLER_31_281
*1073 FILLER_31_293
*1074 FILLER_31_3
*1075 FILLER_31_33
*1076 FILLER_31_41
*1077 FILLER_31_50
*1078 FILLER_31_57
*1079 FILLER_31_64
*1080 FILLER_31_76
*1081 FILLER_31_82
*1082 FILLER_31_94
*1083 FILLER_32_109
*1084 FILLER_32_121
*1085 FILLER_32_133
*1086 FILLER_32_139
*1087 FILLER_32_141
*1088 FILLER_32_15
*1089 FILLER_32_153
*1090 FILLER_32_165
*1091 FILLER_32_177
*1092 FILLER_32_189
*1093 FILLER_32_195
*1094 FILLER_32_197
*1095 FILLER_32_209
*1096 FILLER_32_221
*1097 FILLER_32_233
*1098 FILLER_32_245
*1099 FILLER_32_251
*1100 FILLER_32_253
*1101 FILLER_32_265
*1102 FILLER_32_27
*1103 FILLER_32_277
*1104 FILLER_32_289
*1105 FILLER_32_29
*1106 FILLER_32_297
*1107 FILLER_32_3
*1108 FILLER_32_41
*1109 FILLER_32_53
*1110 FILLER_32_65
*1111 FILLER_32_77
*1112 FILLER_32_83
*1113 FILLER_32_85
*1114 FILLER_32_97
*1115 FILLER_33_108
*1116 FILLER_33_113
*1117 FILLER_33_125
*1118 FILLER_33_137
*1119 FILLER_33_149
*1120 FILLER_33_15
*1121 FILLER_33_161
*1122 FILLER_33_167
*1123 FILLER_33_169
*1124 FILLER_33_181
*1125 FILLER_33_193
*1126 FILLER_33_205
*1127 FILLER_33_217
*1128 FILLER_33_223
*1129 FILLER_33_225
*1130 FILLER_33_237
*1131 FILLER_33_249
*1132 FILLER_33_261
*1133 FILLER_33_27
*1134 FILLER_33_273
*1135 FILLER_33_279
*1136 FILLER_33_281
*1137 FILLER_33_293
*1138 FILLER_33_3
*1139 FILLER_33_39
*1140 FILLER_33_51
*1141 FILLER_33_55
*1142 FILLER_33_57
*1143 FILLER_33_65
*1144 FILLER_33_72
*1145 FILLER_33_84
*1146 FILLER_33_96
*1147 FILLER_34_109
*1148 FILLER_34_115
*1149 FILLER_34_127
*1150 FILLER_34_139
*1151 FILLER_34_141
*1152 FILLER_34_153
*1153 FILLER_34_165
*1154 FILLER_34_177
*1155 FILLER_34_189
*1156 FILLER_34_195
*1157 FILLER_34_197
*1158 FILLER_34_209
*1159 FILLER_34_22
*1160 FILLER_34_221
*1161 FILLER_34_233
*1162 FILLER_34_245
*1163 FILLER_34_251
*1164 FILLER_34_253
*1165 FILLER_34_265
*1166 FILLER_34_277
*1167 FILLER_34_289
*1168 FILLER_34_29
*1169 FILLER_34_297
*1170 FILLER_34_3
*1171 FILLER_34_41
*1172 FILLER_34_53
*1173 FILLER_34_65
*1174 FILLER_34_77
*1175 FILLER_34_83
*1176 FILLER_34_85
*1177 FILLER_34_97
*1178 FILLER_35_105
*1179 FILLER_35_111
*1180 FILLER_35_113
*1181 FILLER_35_125
*1182 FILLER_35_137
*1183 FILLER_35_146
*1184 FILLER_35_15
*1185 FILLER_35_158
*1186 FILLER_35_166
*1187 FILLER_35_169
*1188 FILLER_35_181
*1189 FILLER_35_193
*1190 FILLER_35_205
*1191 FILLER_35_217
*1192 FILLER_35_223
*1193 FILLER_35_225
*1194 FILLER_35_237
*1195 FILLER_35_249
*1196 FILLER_35_261
*1197 FILLER_35_273
*1198 FILLER_35_279
*1199 FILLER_35_281
*1200 FILLER_35_293
*1201 FILLER_35_3
*1202 FILLER_35_40
*1203 FILLER_35_52
*1204 FILLER_35_57
*1205 FILLER_35_69
*1206 FILLER_35_81
*1207 FILLER_35_93
*1208 FILLER_36_109
*1209 FILLER_36_121
*1210 FILLER_36_133
*1211 FILLER_36_139
*1212 FILLER_36_141
*1213 FILLER_36_15
*1214 FILLER_36_153
*1215 FILLER_36_165
*1216 FILLER_36_177
*1217 FILLER_36_189
*1218 FILLER_36_195
*1219 FILLER_36_197
*1220 FILLER_36_209
*1221 FILLER_36_221
*1222 FILLER_36_233
*1223 FILLER_36_245
*1224 FILLER_36_251
*1225 FILLER_36_253
*1226 FILLER_36_265
*1227 FILLER_36_27
*1228 FILLER_36_277
*1229 FILLER_36_289
*1230 FILLER_36_29
*1231 FILLER_36_297
*1232 FILLER_36_3
*1233 FILLER_36_41
*1234 FILLER_36_53
*1235 FILLER_36_65
*1236 FILLER_36_77
*1237 FILLER_36_83
*1238 FILLER_36_85
*1239 FILLER_36_97
*1240 FILLER_37_105
*1241 FILLER_37_11
*1242 FILLER_37_111
*1243 FILLER_37_113
*1244 FILLER_37_125
*1245 FILLER_37_137
*1246 FILLER_37_149
*1247 FILLER_37_161
*1248 FILLER_37_167
*1249 FILLER_37_169
*1250 FILLER_37_17
*1251 FILLER_37_181
*1252 FILLER_37_193
*1253 FILLER_37_205
*1254 FILLER_37_217
*1255 FILLER_37_223
*1256 FILLER_37_225
*1257 FILLER_37_237
*1258 FILLER_37_249
*1259 FILLER_37_261
*1260 FILLER_37_273
*1261 FILLER_37_279
*1262 FILLER_37_281
*1263 FILLER_37_29
*1264 FILLER_37_293
*1265 FILLER_37_3
*1266 FILLER_37_41
*1267 FILLER_37_53
*1268 FILLER_37_57
*1269 FILLER_37_69
*1270 FILLER_37_81
*1271 FILLER_37_93
*1272 FILLER_38_109
*1273 FILLER_38_121
*1274 FILLER_38_133
*1275 FILLER_38_139
*1276 FILLER_38_141
*1277 FILLER_38_153
*1278 FILLER_38_165
*1279 FILLER_38_177
*1280 FILLER_38_189
*1281 FILLER_38_195
*1282 FILLER_38_197
*1283 FILLER_38_209
*1284 FILLER_38_221
*1285 FILLER_38_233
*1286 FILLER_38_245
*1287 FILLER_38_251
*1288 FILLER_38_253
*1289 FILLER_38_26
*1290 FILLER_38_265
*1291 FILLER_38_277
*1292 FILLER_38_289
*1293 FILLER_38_29
*1294 FILLER_38_297
*1295 FILLER_38_3
*1296 FILLER_38_41
*1297 FILLER_38_53
*1298 FILLER_38_65
*1299 FILLER_38_77
*1300 FILLER_38_83
*1301 FILLER_38_85
*1302 FILLER_38_97
*1303 FILLER_39_105
*1304 FILLER_39_111
*1305 FILLER_39_113
*1306 FILLER_39_125
*1307 FILLER_39_137
*1308 FILLER_39_149
*1309 FILLER_39_15
*1310 FILLER_39_161
*1311 FILLER_39_167
*1312 FILLER_39_169
*1313 FILLER_39_181
*1314 FILLER_39_193
*1315 FILLER_39_205
*1316 FILLER_39_217
*1317 FILLER_39_223
*1318 FILLER_39_225
*1319 FILLER_39_237
*1320 FILLER_39_249
*1321 FILLER_39_261
*1322 FILLER_39_27
*1323 FILLER_39_273
*1324 FILLER_39_279
*1325 FILLER_39_281
*1326 FILLER_39_293
*1327 FILLER_39_3
*1328 FILLER_39_39
*1329 FILLER_39_51
*1330 FILLER_39_55
*1331 FILLER_39_57
*1332 FILLER_39_69
*1333 FILLER_39_81
*1334 FILLER_39_93
*1335 FILLER_3_101
*1336 FILLER_3_107
*1337 FILLER_3_111
*1338 FILLER_3_113
*1339 FILLER_3_117
*1340 FILLER_3_123
*1341 FILLER_3_131
*1342 FILLER_3_143
*1343 FILLER_3_155
*1344 FILLER_3_167
*1345 FILLER_3_169
*1346 FILLER_3_181
*1347 FILLER_3_193
*1348 FILLER_3_205
*1349 FILLER_3_217
*1350 FILLER_3_223
*1351 FILLER_3_225
*1352 FILLER_3_237
*1353 FILLER_3_249
*1354 FILLER_3_25
*1355 FILLER_3_261
*1356 FILLER_3_273
*1357 FILLER_3_279
*1358 FILLER_3_281
*1359 FILLER_3_293
*1360 FILLER_3_3
*1361 FILLER_3_45
*1362 FILLER_3_54
*1363 FILLER_3_57
*1364 FILLER_3_75
*1365 FILLER_3_95
*1366 FILLER_40_109
*1367 FILLER_40_121
*1368 FILLER_40_133
*1369 FILLER_40_139
*1370 FILLER_40_141
*1371 FILLER_40_15
*1372 FILLER_40_153
*1373 FILLER_40_165
*1374 FILLER_40_177
*1375 FILLER_40_189
*1376 FILLER_40_195
*1377 FILLER_40_197
*1378 FILLER_40_209
*1379 FILLER_40_221
*1380 FILLER_40_233
*1381 FILLER_40_245
*1382 FILLER_40_251
*1383 FILLER_40_253
*1384 FILLER_40_265
*1385 FILLER_40_27
*1386 FILLER_40_277
*1387 FILLER_40_289
*1388 FILLER_40_29
*1389 FILLER_40_297
*1390 FILLER_40_3
*1391 FILLER_40_41
*1392 FILLER_40_53
*1393 FILLER_40_65
*1394 FILLER_40_77
*1395 FILLER_40_83
*1396 FILLER_40_85
*1397 FILLER_40_97
*1398 FILLER_41_105
*1399 FILLER_41_111
*1400 FILLER_41_113
*1401 FILLER_41_125
*1402 FILLER_41_137
*1403 FILLER_41_149
*1404 FILLER_41_15
*1405 FILLER_41_161
*1406 FILLER_41_167
*1407 FILLER_41_169
*1408 FILLER_41_181
*1409 FILLER_41_193
*1410 FILLER_41_205
*1411 FILLER_41_217
*1412 FILLER_41_223
*1413 FILLER_41_225
*1414 FILLER_41_237
*1415 FILLER_41_249
*1416 FILLER_41_261
*1417 FILLER_41_27
*1418 FILLER_41_273
*1419 FILLER_41_279
*1420 FILLER_41_281
*1421 FILLER_41_293
*1422 FILLER_41_3
*1423 FILLER_41_39
*1424 FILLER_41_51
*1425 FILLER_41_55
*1426 FILLER_41_57
*1427 FILLER_41_69
*1428 FILLER_41_81
*1429 FILLER_41_93
*1430 FILLER_42_109
*1431 FILLER_42_121
*1432 FILLER_42_133
*1433 FILLER_42_139
*1434 FILLER_42_141
*1435 FILLER_42_15
*1436 FILLER_42_153
*1437 FILLER_42_165
*1438 FILLER_42_177
*1439 FILLER_42_189
*1440 FILLER_42_195
*1441 FILLER_42_197
*1442 FILLER_42_209
*1443 FILLER_42_221
*1444 FILLER_42_233
*1445 FILLER_42_245
*1446 FILLER_42_251
*1447 FILLER_42_253
*1448 FILLER_42_265
*1449 FILLER_42_27
*1450 FILLER_42_277
*1451 FILLER_42_289
*1452 FILLER_42_29
*1453 FILLER_42_297
*1454 FILLER_42_3
*1455 FILLER_42_41
*1456 FILLER_42_53
*1457 FILLER_42_65
*1458 FILLER_42_77
*1459 FILLER_42_83
*1460 FILLER_42_85
*1461 FILLER_42_97
*1462 FILLER_43_105
*1463 FILLER_43_111
*1464 FILLER_43_113
*1465 FILLER_43_125
*1466 FILLER_43_137
*1467 FILLER_43_149
*1468 FILLER_43_15
*1469 FILLER_43_161
*1470 FILLER_43_167
*1471 FILLER_43_169
*1472 FILLER_43_181
*1473 FILLER_43_193
*1474 FILLER_43_205
*1475 FILLER_43_217
*1476 FILLER_43_223
*1477 FILLER_43_225
*1478 FILLER_43_237
*1479 FILLER_43_249
*1480 FILLER_43_261
*1481 FILLER_43_27
*1482 FILLER_43_273
*1483 FILLER_43_279
*1484 FILLER_43_281
*1485 FILLER_43_293
*1486 FILLER_43_3
*1487 FILLER_43_39
*1488 FILLER_43_51
*1489 FILLER_43_55
*1490 FILLER_43_57
*1491 FILLER_43_69
*1492 FILLER_43_81
*1493 FILLER_43_93
*1494 FILLER_44_109
*1495 FILLER_44_121
*1496 FILLER_44_133
*1497 FILLER_44_139
*1498 FILLER_44_141
*1499 FILLER_44_15
*1500 FILLER_44_153
*1501 FILLER_44_165
*1502 FILLER_44_177
*1503 FILLER_44_189
*1504 FILLER_44_195
*1505 FILLER_44_197
*1506 FILLER_44_209
*1507 FILLER_44_221
*1508 FILLER_44_233
*1509 FILLER_44_245
*1510 FILLER_44_251
*1511 FILLER_44_253
*1512 FILLER_44_265
*1513 FILLER_44_27
*1514 FILLER_44_277
*1515 FILLER_44_289
*1516 FILLER_44_29
*1517 FILLER_44_297
*1518 FILLER_44_3
*1519 FILLER_44_41
*1520 FILLER_44_53
*1521 FILLER_44_65
*1522 FILLER_44_77
*1523 FILLER_44_83
*1524 FILLER_44_85
*1525 FILLER_44_97
*1526 FILLER_45_105
*1527 FILLER_45_111
*1528 FILLER_45_113
*1529 FILLER_45_125
*1530 FILLER_45_137
*1531 FILLER_45_149
*1532 FILLER_45_15
*1533 FILLER_45_161
*1534 FILLER_45_167
*1535 FILLER_45_169
*1536 FILLER_45_181
*1537 FILLER_45_193
*1538 FILLER_45_205
*1539 FILLER_45_217
*1540 FILLER_45_223
*1541 FILLER_45_225
*1542 FILLER_45_237
*1543 FILLER_45_249
*1544 FILLER_45_261
*1545 FILLER_45_27
*1546 FILLER_45_273
*1547 FILLER_45_279
*1548 FILLER_45_281
*1549 FILLER_45_293
*1550 FILLER_45_3
*1551 FILLER_45_39
*1552 FILLER_45_51
*1553 FILLER_45_55
*1554 FILLER_45_57
*1555 FILLER_45_69
*1556 FILLER_45_81
*1557 FILLER_45_93
*1558 FILLER_46_109
*1559 FILLER_46_121
*1560 FILLER_46_133
*1561 FILLER_46_139
*1562 FILLER_46_141
*1563 FILLER_46_15
*1564 FILLER_46_153
*1565 FILLER_46_165
*1566 FILLER_46_177
*1567 FILLER_46_189
*1568 FILLER_46_195
*1569 FILLER_46_197
*1570 FILLER_46_209
*1571 FILLER_46_221
*1572 FILLER_46_233
*1573 FILLER_46_245
*1574 FILLER_46_251
*1575 FILLER_46_253
*1576 FILLER_46_265
*1577 FILLER_46_27
*1578 FILLER_46_277
*1579 FILLER_46_289
*1580 FILLER_46_29
*1581 FILLER_46_297
*1582 FILLER_46_3
*1583 FILLER_46_41
*1584 FILLER_46_53
*1585 FILLER_46_65
*1586 FILLER_46_77
*1587 FILLER_46_83
*1588 FILLER_46_85
*1589 FILLER_46_97
*1590 FILLER_47_105
*1591 FILLER_47_111
*1592 FILLER_47_113
*1593 FILLER_47_125
*1594 FILLER_47_137
*1595 FILLER_47_149
*1596 FILLER_47_15
*1597 FILLER_47_161
*1598 FILLER_47_167
*1599 FILLER_47_169
*1600 FILLER_47_181
*1601 FILLER_47_193
*1602 FILLER_47_205
*1603 FILLER_47_217
*1604 FILLER_47_223
*1605 FILLER_47_225
*1606 FILLER_47_237
*1607 FILLER_47_249
*1608 FILLER_47_261
*1609 FILLER_47_27
*1610 FILLER_47_273
*1611 FILLER_47_279
*1612 FILLER_47_281
*1613 FILLER_47_293
*1614 FILLER_47_3
*1615 FILLER_47_39
*1616 FILLER_47_51
*1617 FILLER_47_55
*1618 FILLER_47_57
*1619 FILLER_47_69
*1620 FILLER_47_81
*1621 FILLER_47_93
*1622 FILLER_48_109
*1623 FILLER_48_121
*1624 FILLER_48_133
*1625 FILLER_48_139
*1626 FILLER_48_141
*1627 FILLER_48_15
*1628 FILLER_48_153
*1629 FILLER_48_165
*1630 FILLER_48_177
*1631 FILLER_48_189
*1632 FILLER_48_195
*1633 FILLER_48_197
*1634 FILLER_48_209
*1635 FILLER_48_221
*1636 FILLER_48_233
*1637 FILLER_48_245