*SPEF "ieee 1481-1999"
*DESIGN "my_design"
*DATE "11:11:11 Fri 11 11, 1111"
*VENDOR "OpenRCX"
*PROGRAM "Parallel Extraction"
*VERSION "1.0"
*DESIGN_FLOW "NAME_SCOPE LOCAL" "PIN_CAP NONE"
*DIVIDER /
*DELIMITER :
*BUS_DELIMITER []
*T_UNIT 1 NS
*C_UNIT 1 PF
*R_UNIT 1 OHM
*L_UNIT 1 HENRY

*NAME_MAP
*1 io_in[0]
*2 io_in[1]
*3 io_in[2]
*4 io_in[3]
*5 io_in[4]
*6 io_in[5]
*7 io_in[6]
*8 io_in[7]
*9 io_out[0]
*10 io_out[1]
*11 io_out[2]
*12 io_out[3]
*13 io_out[4]
*14 io_out[5]
*15 io_out[6]
*16 io_out[7]
*19 _000_
*20 _001_
*21 _002_
*22 _003_
*23 _004_
*24 _005_
*25 _006_
*26 _007_
*27 _008_
*28 _009_
*29 _010_
*30 _011_
*31 _012_
*32 _013_
*33 _014_
*34 _015_
*35 _016_
*36 _017_
*37 _018_
*38 _019_
*39 _020_
*40 _021_
*41 _022_
*42 _023_
*43 _024_
*44 _025_
*45 _026_
*46 _027_
*47 _028_
*48 _029_
*49 _030_
*50 _031_
*51 _032_
*52 _033_
*53 _034_
*54 _035_
*55 _036_
*56 _037_
*57 _038_
*58 _039_
*59 _040_
*60 _041_
*61 _042_
*62 _043_
*63 _044_
*64 _045_
*65 _046_
*66 _047_
*67 _048_
*68 _049_
*69 _050_
*70 _051_
*71 _052_
*72 _053_
*73 _054_
*74 _055_
*75 _056_
*76 _057_
*77 _058_
*78 _059_
*79 _060_
*80 _061_
*81 _062_
*82 _063_
*83 _064_
*84 _065_
*85 _066_
*86 _067_
*87 _068_
*88 _069_
*89 _070_
*90 _071_
*91 _072_
*92 _073_
*93 _074_
*94 _075_
*95 _076_
*96 _077_
*97 _078_
*98 _079_
*99 _080_
*100 _081_
*101 _082_
*102 _083_
*103 _084_
*104 _085_
*105 _086_
*106 _087_
*107 _088_
*108 _089_
*109 _090_
*110 _091_
*111 _092_
*112 _093_
*113 _094_
*114 _095_
*115 _096_
*116 _097_
*117 _098_
*118 _099_
*119 _100_
*120 _101_
*121 _102_
*122 _103_
*123 _104_
*124 _105_
*125 _106_
*126 _107_
*127 _108_
*128 _109_
*129 _110_
*130 _111_
*131 _112_
*132 _113_
*133 _114_
*134 _115_
*135 _116_
*136 _117_
*137 _118_
*138 _119_
*139 _120_
*140 _121_
*141 _122_
*142 _123_
*143 _124_
*144 _125_
*145 _126_
*146 _127_
*147 _128_
*148 _129_
*149 _130_
*150 _131_
*151 _132_
*152 _133_
*153 _134_
*154 _135_
*155 _136_
*156 _137_
*157 _138_
*158 _139_
*159 _140_
*160 _141_
*161 _142_
*162 _143_
*163 _144_
*164 _145_
*165 _146_
*166 _147_
*167 _148_
*168 _149_
*169 _150_
*170 _151_
*171 _152_
*172 _153_
*173 _154_
*174 _155_
*175 _156_
*176 _157_
*177 _158_
*178 _159_
*179 _160_
*180 _161_
*181 _162_
*182 _163_
*183 _164_
*184 _165_
*185 _166_
*186 _167_
*187 _168_
*188 _169_
*189 _170_
*190 _171_
*191 _172_
*192 _173_
*193 _174_
*194 _175_
*195 _176_
*196 _177_
*197 _178_
*198 _179_
*199 _180_
*200 _181_
*201 _182_
*202 _183_
*203 _184_
*204 _185_
*205 _186_
*206 _187_
*207 _188_
*208 _189_
*209 _190_
*210 _191_
*211 _192_
*212 _193_
*213 _194_
*214 _195_
*215 _196_
*216 _197_
*217 _198_
*218 _199_
*219 _200_
*220 _201_
*221 _202_
*222 _203_
*223 _204_
*224 _205_
*225 _206_
*226 _207_
*227 _208_
*228 _209_
*229 _210_
*230 _211_
*231 _212_
*232 _213_
*233 _214_
*234 _215_
*235 _216_
*236 _217_
*237 _218_
*238 _219_
*239 _220_
*240 _221_
*241 _222_
*242 _223_
*243 _224_
*244 _225_
*245 _226_
*246 _227_
*247 _228_
*248 _229_
*249 _230_
*250 _231_
*251 _232_
*252 _233_
*253 _234_
*254 _235_
*255 _236_
*256 _237_
*257 _238_
*258 _239_
*259 _240_
*260 _241_
*261 _242_
*262 _243_
*263 _244_
*264 _245_
*265 _246_
*266 _247_
*267 _248_
*268 _249_
*269 _250_
*270 _251_
*271 _252_
*272 _253_
*273 _254_
*274 _255_
*275 _256_
*276 _257_
*277 _258_
*278 _259_
*279 _260_
*280 _261_
*281 _262_
*282 _263_
*283 _264_
*284 _265_
*285 _266_
*286 _267_
*287 _268_
*288 _269_
*289 _270_
*290 _271_
*291 _272_
*292 _273_
*293 _274_
*294 _275_
*295 _276_
*296 _277_
*297 _278_
*298 _279_
*299 _280_
*300 _281_
*301 _282_
*302 _283_
*303 _284_
*304 _285_
*305 _286_
*306 _287_
*307 _288_
*308 _289_
*309 _290_
*310 _291_
*311 _292_
*312 _293_
*313 _294_
*314 _295_
*315 _296_
*316 _297_
*317 _298_
*318 _299_
*319 _300_
*320 _301_
*321 _302_
*322 _303_
*323 _304_
*324 _305_
*325 _306_
*326 _307_
*327 _308_
*328 _309_
*329 _310_
*330 _311_
*331 _312_
*332 _313_
*333 _314_
*334 _315_
*335 _316_
*336 _317_
*337 _318_
*338 _319_
*339 _320_
*340 _321_
*341 _322_
*342 _323_
*343 _324_
*344 _325_
*345 _326_
*346 _327_
*347 _328_
*348 _329_
*349 _330_
*350 _331_
*351 _332_
*352 _333_
*353 _334_
*354 _335_
*355 _336_
*356 _337_
*357 _338_
*358 _339_
*359 _340_
*360 _341_
*361 _342_
*362 _343_
*363 _344_
*364 _345_
*365 _346_
*366 _347_
*367 _348_
*368 _349_
*369 _350_
*370 _351_
*371 _352_
*372 _353_
*373 _354_
*374 _355_
*375 _356_
*376 _357_
*377 _358_
*378 _359_
*379 _360_
*380 _361_
*381 _362_
*382 _363_
*383 _364_
*384 _365_
*385 _366_
*386 mult_in_reg\[0\]
*387 mult_in_reg\[10\]
*388 mult_in_reg\[11\]
*389 mult_in_reg\[12\]
*390 mult_in_reg\[13\]
*391 mult_in_reg\[14\]
*392 mult_in_reg\[15\]
*393 mult_in_reg\[1\]
*394 mult_in_reg\[2\]
*395 mult_in_reg\[3\]
*396 mult_in_reg\[4\]
*397 mult_in_reg\[5\]
*398 mult_in_reg\[6\]
*399 mult_in_reg\[7\]
*400 mult_in_reg\[8\]
*401 mult_in_reg\[9\]
*402 my_deb\.d0\.DFF_CLOCK
*403 my_deb\.d0\.my_reg
*404 my_deb\.d1\.my_reg
*405 my_deb\.d2\.my_reg
*406 my_deb\.devo\.q_reg\[0\]
*407 my_deb\.devo\.q_reg\[1\]
*408 my_deb\.devo\.q_reg\[2\]
*409 my_deb\.devo\.q_reg\[3\]
*410 my_deb\.devo\.q_reg\[4\]
*411 my_deb\.devo\.q_reg\[5\]
*412 my_deb\.devo\.q_reg\[6\]
*413 my_deb\.valid1
*414 my_edge\.valid_dly
*415 net1
*416 net10
*417 net11
*418 net12
*419 net13
*420 net2
*421 net3
*422 net4
*423 net5
*424 net6
*425 net7
*426 net8
*427 net9
*428 FILLER_0_109
*429 FILLER_0_113
*430 FILLER_0_125
*431 FILLER_0_137
*432 FILLER_0_141
*433 FILLER_0_15
*434 FILLER_0_153
*435 FILLER_0_165
*436 FILLER_0_169
*437 FILLER_0_181
*438 FILLER_0_193
*439 FILLER_0_197
*440 FILLER_0_209
*441 FILLER_0_221
*442 FILLER_0_225
*443 FILLER_0_237
*444 FILLER_0_249
*445 FILLER_0_253
*446 FILLER_0_265
*447 FILLER_0_27
*448 FILLER_0_277
*449 FILLER_0_281
*450 FILLER_0_29
*451 FILLER_0_293
*452 FILLER_0_3
*453 FILLER_0_41
*454 FILLER_0_53
*455 FILLER_0_57
*456 FILLER_0_69
*457 FILLER_0_81
*458 FILLER_0_85
*459 FILLER_0_97
*460 FILLER_10_121
*461 FILLER_10_13
*462 FILLER_10_133
*463 FILLER_10_139
*464 FILLER_10_141
*465 FILLER_10_153
*466 FILLER_10_165
*467 FILLER_10_177
*468 FILLER_10_189
*469 FILLER_10_195
*470 FILLER_10_197
*471 FILLER_10_209
*472 FILLER_10_221
*473 FILLER_10_233
*474 FILLER_10_245
*475 FILLER_10_251
*476 FILLER_10_253
*477 FILLER_10_26
*478 FILLER_10_265
*479 FILLER_10_277
*480 FILLER_10_289
*481 FILLER_10_29
*482 FILLER_10_297
*483 FILLER_10_3
*484 FILLER_10_54
*485 FILLER_10_61
*486 FILLER_10_76
*487 FILLER_10_85
*488 FILLER_10_9
*489 FILLER_10_93
*490 FILLER_11_105
*491 FILLER_11_111
*492 FILLER_11_113
*493 FILLER_11_125
*494 FILLER_11_137
*495 FILLER_11_149
*496 FILLER_11_161
*497 FILLER_11_167
*498 FILLER_11_169
*499 FILLER_11_181
*500 FILLER_11_193
*501 FILLER_11_205
*502 FILLER_11_217
*503 FILLER_11_223
*504 FILLER_11_225
*505 FILLER_11_237
*506 FILLER_11_249
*507 FILLER_11_261
*508 FILLER_11_273
*509 FILLER_11_279
*510 FILLER_11_281
*511 FILLER_11_293
*512 FILLER_11_3
*513 FILLER_11_34
*514 FILLER_11_44
*515 FILLER_11_52
*516 FILLER_11_57
*517 FILLER_11_68
*518 FILLER_11_93
*519 FILLER_12_111
*520 FILLER_12_123
*521 FILLER_12_135
*522 FILLER_12_139
*523 FILLER_12_14
*524 FILLER_12_141
*525 FILLER_12_153
*526 FILLER_12_165
*527 FILLER_12_177
*528 FILLER_12_189
*529 FILLER_12_195
*530 FILLER_12_197
*531 FILLER_12_209
*532 FILLER_12_21
*533 FILLER_12_221
*534 FILLER_12_233
*535 FILLER_12_245
*536 FILLER_12_251
*537 FILLER_12_253
*538 FILLER_12_265
*539 FILLER_12_27
*540 FILLER_12_277
*541 FILLER_12_289
*542 FILLER_12_29
*543 FILLER_12_297
*544 FILLER_12_3
*545 FILLER_12_33
*546 FILLER_12_38
*547 FILLER_12_46
*548 FILLER_12_70
*549 FILLER_12_78
*550 FILLER_12_82
*551 FILLER_12_85
*552 FILLER_13_108
*553 FILLER_13_113
*554 FILLER_13_119
*555 FILLER_13_131
*556 FILLER_13_143
*557 FILLER_13_155
*558 FILLER_13_16
*559 FILLER_13_167
*560 FILLER_13_169
*561 FILLER_13_181
*562 FILLER_13_193
*563 FILLER_13_20
*564 FILLER_13_205
*565 FILLER_13_217
*566 FILLER_13_223
*567 FILLER_13_225
*568 FILLER_13_237
*569 FILLER_13_249
*570 FILLER_13_261
*571 FILLER_13_27
*572 FILLER_13_273
*573 FILLER_13_279
*574 FILLER_13_281
*575 FILLER_13_293
*576 FILLER_13_3
*577 FILLER_13_52
*578 FILLER_13_57
*579 FILLER_13_68
*580 FILLER_13_72
*581 FILLER_13_82
*582 FILLER_13_9
*583 FILLER_13_90
*584 FILLER_13_95
*585 FILLER_14_102
*586 FILLER_14_123
*587 FILLER_14_135
*588 FILLER_14_139
*589 FILLER_14_141
*590 FILLER_14_15
*591 FILLER_14_153
*592 FILLER_14_165
*593 FILLER_14_177
*594 FILLER_14_189
*595 FILLER_14_195
*596 FILLER_14_197
*597 FILLER_14_209
*598 FILLER_14_221
*599 FILLER_14_233
*600 FILLER_14_245
*601 FILLER_14_251
*602 FILLER_14_253
*603 FILLER_14_26
*604 FILLER_14_265
*605 FILLER_14_277
*606 FILLER_14_289
*607 FILLER_14_29
*608 FILLER_14_297
*609 FILLER_14_3
*610 FILLER_14_41
*611 FILLER_14_48
*612 FILLER_14_73
*613 FILLER_14_80
*614 FILLER_14_85
*615 FILLER_14_96
*616 FILLER_15_105
*617 FILLER_15_111
*618 FILLER_15_113
*619 FILLER_15_119
*620 FILLER_15_127
*621 FILLER_15_139
*622 FILLER_15_151
*623 FILLER_15_163
*624 FILLER_15_167
*625 FILLER_15_169
*626 FILLER_15_181
*627 FILLER_15_193
*628 FILLER_15_205
*629 FILLER_15_217
*630 FILLER_15_223
*631 FILLER_15_225
*632 FILLER_15_237
*633 FILLER_15_249
*634 FILLER_15_261
*635 FILLER_15_273
*636 FILLER_15_279
*637 FILLER_15_281
*638 FILLER_15_293
*639 FILLER_15_3
*640 FILLER_15_33
*641 FILLER_15_41
*642 FILLER_15_49
*643 FILLER_15_54
*644 FILLER_15_57
*645 FILLER_15_65
*646 FILLER_15_8
*647 FILLER_15_90
*648 FILLER_15_98
*649 FILLER_16_117
*650 FILLER_16_129
*651 FILLER_16_137
*652 FILLER_16_141
*653 FILLER_16_153
*654 FILLER_16_165
*655 FILLER_16_177
*656 FILLER_16_189
*657 FILLER_16_195
*658 FILLER_16_197
*659 FILLER_16_209
*660 FILLER_16_22
*661 FILLER_16_221
*662 FILLER_16_233
*663 FILLER_16_245
*664 FILLER_16_251
*665 FILLER_16_253
*666 FILLER_16_265
*667 FILLER_16_277
*668 FILLER_16_289
*669 FILLER_16_29
*670 FILLER_16_297
*671 FILLER_16_3
*672 FILLER_16_37
*673 FILLER_16_45
*674 FILLER_16_54
*675 FILLER_16_66
*676 FILLER_16_72
*677 FILLER_16_82
*678 FILLER_16_85
*679 FILLER_16_89
*680 FILLER_16_9
*681 FILLER_16_93
*682 FILLER_17_104
*683 FILLER_17_113
*684 FILLER_17_122
*685 FILLER_17_132
*686 FILLER_17_144
*687 FILLER_17_156
*688 FILLER_17_169
*689 FILLER_17_181
*690 FILLER_17_193
*691 FILLER_17_205
*692 FILLER_17_217
*693 FILLER_17_223
*694 FILLER_17_225
*695 FILLER_17_237
*696 FILLER_17_249
*697 FILLER_17_25
*698 FILLER_17_261
*699 FILLER_17_273
*700 FILLER_17_279
*701 FILLER_17_281
*702 FILLER_17_293
*703 FILLER_17_3
*704 FILLER_17_32
*705 FILLER_17_43
*706 FILLER_17_54
*707 FILLER_17_57
*708 FILLER_17_63
*709 FILLER_17_71
*710 FILLER_17_79
*711 FILLER_17_91
*712 FILLER_18_107
*713 FILLER_18_115
*714 FILLER_18_128
*715 FILLER_18_136
*716 FILLER_18_141
*717 FILLER_18_146
*718 FILLER_18_15
*719 FILLER_18_158
*720 FILLER_18_170
*721 FILLER_18_182
*722 FILLER_18_194
*723 FILLER_18_197
*724 FILLER_18_209
*725 FILLER_18_221
*726 FILLER_18_233
*727 FILLER_18_245
*728 FILLER_18_251
*729 FILLER_18_253
*730 FILLER_18_26
*731 FILLER_18_265
*732 FILLER_18_277
*733 FILLER_18_289
*734 FILLER_18_29
*735 FILLER_18_297
*736 FILLER_18_3
*737 FILLER_18_35
*738 FILLER_18_47
*739 FILLER_18_59
*740 FILLER_18_65
*741 FILLER_18_69
*742 FILLER_18_82
*743 FILLER_18_85
*744 FILLER_19_101
*745 FILLER_19_106
*746 FILLER_19_113
*747 FILLER_19_122
*748 FILLER_19_134
*749 FILLER_19_146
*750 FILLER_19_158
*751 FILLER_19_166
*752 FILLER_19_169
*753 FILLER_19_181
*754 FILLER_19_193
*755 FILLER_19_20
*756 FILLER_19_205
*757 FILLER_19_217
*758 FILLER_19_223
*759 FILLER_19_225
*760 FILLER_19_237
*761 FILLER_19_249
*762 FILLER_19_261
*763 FILLER_19_27
*764 FILLER_19_273
*765 FILLER_19_279
*766 FILLER_19_281
*767 FILLER_19_293
*768 FILLER_19_3
*769 FILLER_19_38
*770 FILLER_19_50
*771 FILLER_19_57
*772 FILLER_19_65
*773 FILLER_19_74
*774 FILLER_19_8
*775 FILLER_19_82
*776 FILLER_19_93
*777 FILLER_1_105
*778 FILLER_1_111
*779 FILLER_1_113
*780 FILLER_1_125
*781 FILLER_1_137
*782 FILLER_1_149
*783 FILLER_1_15
*784 FILLER_1_161
*785 FILLER_1_167
*786 FILLER_1_169
*787 FILLER_1_181
*788 FILLER_1_193
*789 FILLER_1_205
*790 FILLER_1_217
*791 FILLER_1_223
*792 FILLER_1_225
*793 FILLER_1_237
*794 FILLER_1_249
*795 FILLER_1_261
*796 FILLER_1_27
*797 FILLER_1_273
*798 FILLER_1_279
*799 FILLER_1_281
*800 FILLER_1_293
*801 FILLER_1_3
*802 FILLER_1_39
*803 FILLER_1_51
*804 FILLER_1_55
*805 FILLER_1_57
*806 FILLER_1_69
*807 FILLER_1_81
*808 FILLER_1_93
*809 FILLER_20_100
*810 FILLER_20_108
*811 FILLER_20_116
*812 FILLER_20_126
*813 FILLER_20_135
*814 FILLER_20_139
*815 FILLER_20_141
*816 FILLER_20_15
*817 FILLER_20_153
*818 FILLER_20_165
*819 FILLER_20_177
*820 FILLER_20_189
*821 FILLER_20_195
*822 FILLER_20_197
*823 FILLER_20_209
*824 FILLER_20_221
*825 FILLER_20_233
*826 FILLER_20_245
*827 FILLER_20_25
*828 FILLER_20_251
*829 FILLER_20_253
*830 FILLER_20_265
*831 FILLER_20_277
*832 FILLER_20_289
*833 FILLER_20_29
*834 FILLER_20_297
*835 FILLER_20_3
*836 FILLER_20_36
*837 FILLER_20_43
*838 FILLER_20_54
*839 FILLER_20_62
*840 FILLER_20_7
*841 FILLER_20_71
*842 FILLER_20_83
*843 FILLER_20_85
*844 FILLER_21_101
*845 FILLER_21_110
*846 FILLER_21_113
*847 FILLER_21_117
*848 FILLER_21_125
*849 FILLER_21_134
*850 FILLER_21_146
*851 FILLER_21_158
*852 FILLER_21_166
*853 FILLER_21_169
*854 FILLER_21_181
*855 FILLER_21_193
*856 FILLER_21_205
*857 FILLER_21_217
*858 FILLER_21_22
*859 FILLER_21_223
*860 FILLER_21_225
*861 FILLER_21_237
*862 FILLER_21_249
*863 FILLER_21_261
*864 FILLER_21_273
*865 FILLER_21_279
*866 FILLER_21_281
*867 FILLER_21_293
*868 FILLER_21_3
*869 FILLER_21_36
*870 FILLER_21_54
*871 FILLER_21_57
*872 FILLER_21_71
*873 FILLER_21_8
*874 FILLER_21_83
*875 FILLER_21_91
*876 FILLER_22_117
*877 FILLER_22_125
*878 FILLER_22_134
*879 FILLER_22_141
*880 FILLER_22_153
*881 FILLER_22_16
*882 FILLER_22_165
*883 FILLER_22_177
*884 FILLER_22_189
*885 FILLER_22_195
*886 FILLER_22_197
*887 FILLER_22_209
*888 FILLER_22_221
*889 FILLER_22_233
*890 FILLER_22_245
*891 FILLER_22_251
*892 FILLER_22_253
*893 FILLER_22_26
*894 FILLER_22_265
*895 FILLER_22_277
*896 FILLER_22_289
*897 FILLER_22_29
*898 FILLER_22_297
*899 FILLER_22_3
*900 FILLER_22_34
*901 FILLER_22_38
*902 FILLER_22_46
*903 FILLER_22_56
*904 FILLER_22_69
*905 FILLER_22_79
*906 FILLER_22_83
*907 FILLER_22_85
*908 FILLER_22_93
*909 FILLER_23_106
*910 FILLER_23_113
*911 FILLER_23_12
*912 FILLER_23_123
*913 FILLER_23_137
*914 FILLER_23_145
*915 FILLER_23_157
*916 FILLER_23_165
*917 FILLER_23_169
*918 FILLER_23_181
*919 FILLER_23_193
*920 FILLER_23_205
*921 FILLER_23_217
*922 FILLER_23_22
*923 FILLER_23_223
*924 FILLER_23_225
*925 FILLER_23_237
*926 FILLER_23_249
*927 FILLER_23_261
*928 FILLER_23_273
*929 FILLER_23_279
*930 FILLER_23_281
*931 FILLER_23_293
*932 FILLER_23_3
*933 FILLER_23_30
*934 FILLER_23_37
*935 FILLER_23_47
*936 FILLER_23_55
*937 FILLER_23_57
*938 FILLER_23_67
*939 FILLER_23_74
*940 FILLER_23_99
*941 FILLER_24_106
*942 FILLER_24_110
*943 FILLER_24_12
*944 FILLER_24_121
*945 FILLER_24_127
*946 FILLER_24_131
*947 FILLER_24_139
*948 FILLER_24_141
*949 FILLER_24_153
*950 FILLER_24_165
*951 FILLER_24_177
*952 FILLER_24_189
*953 FILLER_24_195
*954 FILLER_24_197
*955 FILLER_24_209
*956 FILLER_24_21
*957 FILLER_24_221
*958 FILLER_24_233
*959 FILLER_24_245
*960 FILLER_24_251
*961 FILLER_24_253
*962 FILLER_24_265
*963 FILLER_24_27
*964 FILLER_24_277
*965 FILLER_24_289
*966 FILLER_24_29
*967 FILLER_24_297
*968 FILLER_24_3
*969 FILLER_24_39
*970 FILLER_24_45
*971 FILLER_24_53
*972 FILLER_24_67
*973 FILLER_24_79
*974 FILLER_24_83
*975 FILLER_24_85
*976 FILLER_24_89
*977 FILLER_24_93
*978 FILLER_25_101
*979 FILLER_25_109
*980 FILLER_25_113
*981 FILLER_25_120
*982 FILLER_25_126
*983 FILLER_25_131
*984 FILLER_25_143
*985 FILLER_25_155
*986 FILLER_25_167
*987 FILLER_25_169
*988 FILLER_25_18
*989 FILLER_25_181
*990 FILLER_25_193
*991 FILLER_25_205
*992 FILLER_25_217
*993 FILLER_25_223
*994 FILLER_25_225
*995 FILLER_25_237
*996 FILLER_25_249
*997 FILLER_25_261
*998 FILLER_25_273
*999 FILLER_25_279
*1000 FILLER_25_281
*1001 FILLER_25_293
*1002 FILLER_25_3
*1003 FILLER_25_35
*1004 FILLER_25_50
*1005 FILLER_25_57
*1006 FILLER_25_65
*1007 FILLER_25_74
*1008 FILLER_25_78
*1009 FILLER_25_88
*1010 FILLER_25_94
*1011 FILLER_26_106
*1012 FILLER_26_11
*1013 FILLER_26_116
*1014 FILLER_26_124
*1015 FILLER_26_132
*1016 FILLER_26_141
*1017 FILLER_26_153
*1018 FILLER_26_165
*1019 FILLER_26_177
*1020 FILLER_26_189
*1021 FILLER_26_19
*1022 FILLER_26_195
*1023 FILLER_26_197
*1024 FILLER_26_209
*1025 FILLER_26_221
*1026 FILLER_26_233
*1027 FILLER_26_245
*1028 FILLER_26_251
*1029 FILLER_26_253
*1030 FILLER_26_26
*1031 FILLER_26_265
*1032 FILLER_26_277
*1033 FILLER_26_289
*1034 FILLER_26_29
*1035 FILLER_26_297
*1036 FILLER_26_3
*1037 FILLER_26_39
*1038 FILLER_26_43
*1039 FILLER_26_50
*1040 FILLER_26_58
*1041 FILLER_26_66
*1042 FILLER_26_75
*1043 FILLER_26_83
*1044 FILLER_26_85
*1045 FILLER_26_97
*1046 FILLER_27_102
*1047 FILLER_27_110
*1048 FILLER_27_113
*1049 FILLER_27_122
*1050 FILLER_27_129
*1051 FILLER_27_141
*1052 FILLER_27_153
*1053 FILLER_27_16
*1054 FILLER_27_165
*1055 FILLER_27_169
*1056 FILLER_27_181
*1057 FILLER_27_193
*1058 FILLER_27_205
*1059 FILLER_27_217
*1060 FILLER_27_223
*1061 FILLER_27_225
*1062 FILLER_27_237
*1063 FILLER_27_24
*1064 FILLER_27_249
*1065 FILLER_27_261
*1066 FILLER_27_273
*1067 FILLER_27_279
*1068 FILLER_27_281
*1069 FILLER_27_293
*1070 FILLER_27_3
*1071 FILLER_27_30
*1072 FILLER_27_34
*1073 FILLER_27_44
*1074 FILLER_27_50
*1075 FILLER_27_54
*1076 FILLER_27_57
*1077 FILLER_27_67
*1078 FILLER_27_83
*1079 FILLER_27_9
*1080 FILLER_27_94
*1081 FILLER_28_106
*1082 FILLER_28_113
*1083 FILLER_28_117
*1084 FILLER_28_123
*1085 FILLER_28_13
*1086 FILLER_28_137
*1087 FILLER_28_141
*1088 FILLER_28_153
*1089 FILLER_28_165
*1090 FILLER_28_177
*1091 FILLER_28_189
*1092 FILLER_28_19
*1093 FILLER_28_195
*1094 FILLER_28_197
*1095 FILLER_28_209
*1096 FILLER_28_221
*1097 FILLER_28_233
*1098 FILLER_28_245
*1099 FILLER_28_25
*1100 FILLER_28_251
*1101 FILLER_28_253
*1102 FILLER_28_265
*1103 FILLER_28_277
*1104 FILLER_28_289
*1105 FILLER_28_29
*1106 FILLER_28_297
*1107 FILLER_28_3
*1108 FILLER_28_33
*1109 FILLER_28_41
*1110 FILLER_28_52
*1111 FILLER_28_63
*1112 FILLER_28_7
*1113 FILLER_28_71
*1114 FILLER_28_82
*1115 FILLER_28_85
*1116 FILLER_28_91
*1117 FILLER_28_98
*1118 FILLER_29_105
*1119 FILLER_29_110
*1120 FILLER_29_113
*1121 FILLER_29_120
*1122 FILLER_29_124
*1123 FILLER_29_129
*1124 FILLER_29_139
*1125 FILLER_29_151
*1126 FILLER_29_163
*1127 FILLER_29_167
*1128 FILLER_29_169
*1129 FILLER_29_181
*1130 FILLER_29_193
*1131 FILLER_29_20
*1132 FILLER_29_205
*1133 FILLER_29_217
*1134 FILLER_29_223
*1135 FILLER_29_225
*1136 FILLER_29_237
*1137 FILLER_29_249
*1138 FILLER_29_261
*1139 FILLER_29_273
*1140 FILLER_29_279
*1141 FILLER_29_281
*1142 FILLER_29_293
*1143 FILLER_29_3
*1144 FILLER_29_34
*1145 FILLER_29_40
*1146 FILLER_29_45
*1147 FILLER_29_52
*1148 FILLER_29_57
*1149 FILLER_29_62
*1150 FILLER_29_70
*1151 FILLER_29_76
*1152 FILLER_29_84
*1153 FILLER_29_9
*1154 FILLER_29_91
*1155 FILLER_29_99
*1156 FILLER_2_109
*1157 FILLER_2_121
*1158 FILLER_2_133
*1159 FILLER_2_139
*1160 FILLER_2_141
*1161 FILLER_2_15
*1162 FILLER_2_153
*1163 FILLER_2_165
*1164 FILLER_2_177
*1165 FILLER_2_189
*1166 FILLER_2_195
*1167 FILLER_2_197
*1168 FILLER_2_209
*1169 FILLER_2_221
*1170 FILLER_2_233
*1171 FILLER_2_245
*1172 FILLER_2_251
*1173 FILLER_2_253
*1174 FILLER_2_265
*1175 FILLER_2_27
*1176 FILLER_2_277
*1177 FILLER_2_289
*1178 FILLER_2_29
*1179 FILLER_2_297
*1180 FILLER_2_3
*1181 FILLER_2_41
*1182 FILLER_2_53
*1183 FILLER_2_65
*1184 FILLER_2_77
*1185 FILLER_2_83
*1186 FILLER_2_85
*1187 FILLER_2_97
*1188 FILLER_30_109
*1189 FILLER_30_117
*1190 FILLER_30_127
*1191 FILLER_30_137
*1192 FILLER_30_141
*1193 FILLER_30_153
*1194 FILLER_30_165
*1195 FILLER_30_177
*1196 FILLER_30_189
*1197 FILLER_30_195
*1198 FILLER_30_197
*1199 FILLER_30_209
*1200 FILLER_30_22
*1201 FILLER_30_221
*1202 FILLER_30_233
*1203 FILLER_30_245
*1204 FILLER_30_251
*1205 FILLER_30_253
*1206 FILLER_30_265
*1207 FILLER_30_277
*1208 FILLER_30_289
*1209 FILLER_30_29
*1210 FILLER_30_297
*1211 FILLER_30_3
*1212 FILLER_30_37
*1213 FILLER_30_47
*1214 FILLER_30_55
*1215 FILLER_30_64
*1216 FILLER_30_70
*1217 FILLER_30_77
*1218 FILLER_30_83
*1219 FILLER_30_85
*1220 FILLER_30_99
*1221 FILLER_31_105
*1222 FILLER_31_111
*1223 FILLER_31_113
*1224 FILLER_31_121
*1225 FILLER_31_133
*1226 FILLER_31_145
*1227 FILLER_31_157
*1228 FILLER_31_165
*1229 FILLER_31_169
*1230 FILLER_31_181
*1231 FILLER_31_19
*1232 FILLER_31_193
*1233 FILLER_31_205
*1234 FILLER_31_217
*1235 FILLER_31_223
*1236 FILLER_31_225
*1237 FILLER_31_237
*1238 FILLER_31_249
*1239 FILLER_31_261
*1240 FILLER_31_273
*1241 FILLER_31_279
*1242 FILLER_31_281
*1243 FILLER_31_293
*1244 FILLER_31_3
*1245 FILLER_31_32
*1246 FILLER_31_40
*1247 FILLER_31_49
*1248 FILLER_31_55
*1249 FILLER_31_57
*1250 FILLER_31_63
*1251 FILLER_31_72
*1252 FILLER_31_78
*1253 FILLER_31_8
*1254 FILLER_31_82
*1255 FILLER_31_94
*1256 FILLER_31_98
*1257 FILLER_32_103
*1258 FILLER_32_112
*1259 FILLER_32_12
*1260 FILLER_32_120
*1261 FILLER_32_127
*1262 FILLER_32_139
*1263 FILLER_32_141
*1264 FILLER_32_153
*1265 FILLER_32_165
*1266 FILLER_32_177
*1267 FILLER_32_189
*1268 FILLER_32_195
*1269 FILLER_32_197
*1270 FILLER_32_209
*1271 FILLER_32_221
*1272 FILLER_32_233
*1273 FILLER_32_245
*1274 FILLER_32_251
*1275 FILLER_32_253
*1276 FILLER_32_26
*1277 FILLER_32_265
*1278 FILLER_32_277
*1279 FILLER_32_289
*1280 FILLER_32_29
*1281 FILLER_32_297
*1282 FILLER_32_3
*1283 FILLER_32_36
*1284 FILLER_32_47
*1285 FILLER_32_60
*1286 FILLER_32_70
*1287 FILLER_32_82
*1288 FILLER_32_85
*1289 FILLER_32_93
*1290 FILLER_33_109
*1291 FILLER_33_11
*1292 FILLER_33_113
*1293 FILLER_33_124
*1294 FILLER_33_135
*1295 FILLER_33_147
*1296 FILLER_33_159
*1297 FILLER_33_167
*1298 FILLER_33_169
*1299 FILLER_33_181
*1300 FILLER_33_19
*1301 FILLER_33_193
*1302 FILLER_33_205
*1303 FILLER_33_217
*1304 FILLER_33_223
*1305 FILLER_33_225
*1306 FILLER_33_237
*1307 FILLER_33_249
*1308 FILLER_33_261
*1309 FILLER_33_273
*1310 FILLER_33_279
*1311 FILLER_33_281
*1312 FILLER_33_293
*1313 FILLER_33_3
*1314 FILLER_33_33
*1315 FILLER_33_41
*1316 FILLER_33_52
*1317 FILLER_33_57
*1318 FILLER_33_63
*1319 FILLER_33_71
*1320 FILLER_33_78
*1321 FILLER_33_89
*1322 FILLER_33_97
*1323 FILLER_34_101
*1324 FILLER_34_105
*1325 FILLER_34_111
*1326 FILLER_34_119
*1327 FILLER_34_126
*1328 FILLER_34_138
*1329 FILLER_34_141
*1330 FILLER_34_149
*1331 FILLER_34_15
*1332 FILLER_34_161
*1333 FILLER_34_173
*1334 FILLER_34_185
*1335 FILLER_34_193
*1336 FILLER_34_197
*1337 FILLER_34_209
*1338 FILLER_34_221
*1339 FILLER_34_233
*1340 FILLER_34_24
*1341 FILLER_34_245
*1342 FILLER_34_251
*1343 FILLER_34_253
*1344 FILLER_34_265
*1345 FILLER_34_277
*1346 FILLER_34_289
*1347 FILLER_34_29
*1348 FILLER_34_297
*1349 FILLER_34_3
*1350 FILLER_34_36
*1351 FILLER_34_40
*1352 FILLER_34_46
*1353 FILLER_34_56
*1354 FILLER_34_68
*1355 FILLER_34_7
*1356 FILLER_34_74
*1357 FILLER_34_82
*1358 FILLER_34_85
*1359 FILLER_35_110
*1360 FILLER_35_113
*1361 FILLER_35_122
*1362 FILLER_35_130
*1363 FILLER_35_141
*1364 FILLER_35_153
*1365 FILLER_35_16
*1366 FILLER_35_165
*1367 FILLER_35_169
*1368 FILLER_35_181
*1369 FILLER_35_193
*1370 FILLER_35_20
*1371 FILLER_35_205
*1372 FILLER_35_217
*1373 FILLER_35_223
*1374 FILLER_35_225
*1375 FILLER_35_237
*1376 FILLER_35_249
*1377 FILLER_35_261
*1378 FILLER_35_273
*1379 FILLER_35_279
*1380 FILLER_35_28
*1381 FILLER_35_281
*1382 FILLER_35_293
*1383 FILLER_35_3
*1384 FILLER_35_38
*1385 FILLER_35_42
*1386 FILLER_35_50
*1387 FILLER_35_57
*1388 FILLER_35_62
*1389 FILLER_35_66
*1390 FILLER_35_75
*1391 FILLER_35_83
*1392 FILLER_35_87
*1393 FILLER_35_91
*1394 FILLER_35_98
*1395 FILLER_36_10
*1396 FILLER_36_107
*1397 FILLER_36_114
*1398 FILLER_36_130
*1399 FILLER_36_138
*1400 FILLER_36_141
*1401 FILLER_36_153
*1402 FILLER_36_165
*1403 FILLER_36_177
*1404 FILLER_36_18
*1405 FILLER_36_189
*1406 FILLER_36_195
*1407 FILLER_36_197
*1408 FILLER_36_209
*1409 FILLER_36_221
*1410 FILLER_36_233
*1411 FILLER_36_245
*1412 FILLER_36_251
*1413 FILLER_36_253
*1414 FILLER_36_26
*1415 FILLER_36_265
*1416 FILLER_36_277
*1417 FILLER_36_289
*1418 FILLER_36_29
*1419 FILLER_36_297
*1420 FILLER_36_3
*1421 FILLER_36_36
*1422 FILLER_36_42
*1423 FILLER_36_49
*1424 FILLER_36_55
*1425 FILLER_36_59
*1426 FILLER_36_66
*1427 FILLER_36_73
*1428 FILLER_36_81
*1429 FILLER_36_85
*1430 FILLER_36_92
*1431 FILLER_37_107
*1432 FILLER_37_111
*1433 FILLER_37_113
*1434 FILLER_37_127
*1435 FILLER_37_13
*1436 FILLER_37_135
*1437 FILLER_37_143
*1438 FILLER_37_150
*1439 FILLER_37_162
*1440 FILLER_37_169
*1441 FILLER_37_181
*1442 FILLER_37_193
*1443 FILLER_37_205
*1444 FILLER_37_217
*1445 FILLER_37_22
*1446 FILLER_37_223
*1447 FILLER_37_225
*1448 FILLER_37_237
*1449 FILLER_37_249
*1450 FILLER_37_261
*1451 FILLER_37_273
*1452 FILLER_37_279
*1453 FILLER_37_281
*1454 FILLER_37_293
*1455 FILLER_37_3
*1456 FILLER_37_30
*1457 FILLER_37_36
*1458 FILLER_37_40
*1459 FILLER_37_50
*1460 FILLER_37_57
*1461 FILLER_37_68
*1462 FILLER_37_7
*1463 FILLER_37_82
*1464 FILLER_37_86
*1465 FILLER_37_93
*1466 FILLER_37_99
*1467 FILLER_38_105
*1468 FILLER_38_111
*1469 FILLER_38_115
*1470 FILLER_38_127
*1471 FILLER_38_13
*1472 FILLER_38_138
*1473 FILLER_38_141
*1474 FILLER_38_150
*1475 FILLER_38_162
*1476 FILLER_38_174
*1477 FILLER_38_186
*1478 FILLER_38_194
*1479 FILLER_38_197
*1480 FILLER_38_209
*1481 FILLER_38_22
*1482 FILLER_38_221
*1483 FILLER_38_233
*1484 FILLER_38_245
*1485 FILLER_38_251
*1486 FILLER_38_253
*1487 FILLER_38_265
*1488 FILLER_38_277
*1489 FILLER_38_289
*1490 FILLER_38_29
*1491 FILLER_38_297
*1492 FILLER_38_3
*1493 FILLER_38_33
*1494 FILLER_38_39
*1495 FILLER_38_55
*1496 FILLER_38_61
*1497 FILLER_38_72
*1498 FILLER_38_82
*1499 FILLER_38_85
*1500 FILLER_38_91
*1501 FILLER_38_97
*1502 FILLER_39_110
*1503 FILLER_39_113
*1504 FILLER_39_117
*1505 FILLER_39_125
*1506 FILLER_39_132
*1507 FILLER_39_144
*1508 FILLER_39_156
*1509 FILLER_39_16
*1510 FILLER_39_169
*1511 FILLER_39_181
*1512 FILLER_39_193
*1513 FILLER_39_205
*1514 FILLER_39_217
*1515 FILLER_39_223
*1516 FILLER_39_225
*1517 FILLER_39_237
*1518 FILLER_39_249
*1519 FILLER_39_261
*1520 FILLER_39_273
*1521 FILLER_39_279
*1522 FILLER_39_281
*1523 FILLER_39_29
*1524 FILLER_39_293
*1525 FILLER_39_3
*1526 FILLER_39_37
*1527 FILLER_39_41
*1528 FILLER_39_50
*1529 FILLER_39_57
*1530 FILLER_39_61
*1531 FILLER_39_68
*1532 FILLER_39_7
*1533 FILLER_39_76
*1534 FILLER_39_91
*1535 FILLER_39_99
*1536 FILLER_3_105
*1537 FILLER_3_111
*1538 FILLER_3_113
*1539 FILLER_3_125
*1540 FILLER_3_137
*1541 FILLER_3_149
*1542 FILLER_3_161
*1543 FILLER_3_167
*1544 FILLER_3_169
*1545 FILLER_3_181
*1546 FILLER_3_193
*1547 FILLER_3_20
*1548 FILLER_3_205
*1549 FILLER_3_217
*1550 FILLER_3_223
*1551 FILLER_3_225
*1552 FILLER_3_237
*1553 FILLER_3_249
*1554 FILLER_3_261
*1555 FILLER_3_273
*1556 FILLER_3_279
*1557 FILLER_3_281
*1558 FILLER_3_293
*1559 FILLER_3_3
*1560 FILLER_3_32
*1561 FILLER_3_44
*1562 FILLER_3_57
*1563 FILLER_3_69
*1564 FILLER_3_8
*1565 FILLER_3_81
*1566 FILLER_3_93
*1567 FILLER_40_105
*1568 FILLER_40_111
*1569 FILLER_40_122
*1570 FILLER_40_130
*1571 FILLER_40_138
*1572 FILLER_40_141
*1573 FILLER_40_15
*1574 FILLER_40_153
*1575 FILLER_40_165
*1576 FILLER_40_177
*1577 FILLER_40_189
*1578 FILLER_40_195
*1579 FILLER_40_197
*1580 FILLER_40_209
*1581 FILLER_40_221
*1582 FILLER_40_233
*1583 FILLER_40_24
*1584 FILLER_40_245
*1585 FILLER_40_251
*1586 FILLER_40_253
*1587 FILLER_40_265
*1588 FILLER_40_277
*1589 FILLER_40_289
*1590 FILLER_40_29
*1591 FILLER_40_297
*1592 FILLER_40_3
*1593 FILLER_40_36
*1594 FILLER_40_45
*1595 FILLER_40_54
*1596 FILLER_40_62
*1597 FILLER_40_71
*1598 FILLER_40_78
*1599 FILLER_40_85
*1600 FILLER_40_99
*1601 FILLER_41_100
*1602 FILLER_41_106
*1603 FILLER_41_110
*1604 FILLER_41_113
*1605 FILLER_41_119
*1606 FILLER_41_12
*1607 FILLER_41_126
*1608 FILLER_41_134
*1609 FILLER_41_142
*1610 FILLER_41_149
*1611 FILLER_41_161
*1612 FILLER_41_167
*1613 FILLER_41_169
*1614 FILLER_41_181
*1615 FILLER_41_193
*1616 FILLER_41_205
*1617 FILLER_41_217
*1618 FILLER_41_223
*1619 FILLER_41_225
*1620 FILLER_41_237
*1621 FILLER_41_249
*1622 FILLER_41_26
*1623 FILLER_41_261
*1624 FILLER_41_273
*1625 FILLER_41_279
*1626 FILLER_41_281
*1627 FILLER_41_293
*1628 FILLER_41_3
*1629 FILLER_41_36
*1630 FILLER_41_46
*1631 FILLER_41_54
*1632 FILLER_41_57
*1633 FILLER_41_64
*1634 FILLER_41_71
*1635 FILLER_41_80
*1636 FILLER_41_84
*1637 FILLER_41_90
*1638 FILLER_42_104
*1639 FILLER_42_114
*1640 FILLER_42_118
*1641 FILLER_42_126
*1642 FILLER_42_138
*1643 FILLER_42_141
*1644 FILLER_42_153
*1645 FILLER_42_165
*1646 FILLER_42_177
*1647 FILLER_42_18
*1648 FILLER_42_189
*1649 FILLER_42_195
*1650 FILLER_42_197
*1651 FILLER_42_209
*1652 FILLER_42_221
*1653 FILLER_42_233
*1654 FILLER_42_245
*1655 FILLER_42_251
*1656 FILLER_42_253
*1657 FILLER_42_26
*1658 FILLER_42_265
*1659 FILLER_42_277
*1660 FILLER_42_289
*1661 FILLER_42_29
*1662 FILLER_42_297
*1663 FILLER_42_3
*1664 FILLER_42_36
*1665 FILLER_42_49
*1666 FILLER_42_53
*1667 FILLER_42_61
*1668 FILLER_42_72
*1669 FILLER_42_82
*1670 FILLER_42_85
*1671 FILLER_42_98
*1672 FILLER_43_103
*1673 FILLER_43_11
*1674 FILLER_43_110
*1675 FILLER_43_113
*1676 FILLER_43_120
*1677 FILLER_43_132
*1678 FILLER_43_144
*1679 FILLER_43_156
*1680 FILLER_43_169
*1681 FILLER_43_181
*1682 FILLER_43_19
*1683 FILLER_43_193
*1684 FILLER_43_205
*1685 FILLER_43_217
*1686 FILLER_43_223
*1687 FILLER_43_225
*1688 FILLER_43_237
*1689 FILLER_43_249
*1690 FILLER_43_261
*1691 FILLER_43_273
*1692 FILLER_43_279
*1693 FILLER_43_281
*1694 FILLER_43_29
*1695 FILLER_43_293
*1696 FILLER_43_3
*1697 FILLER_43_38
*1698 FILLER_43_44
*1699 FILLER_43_52
*1700 FILLER_43_57
*1701 FILLER_43_63
*1702 FILLER_43_69
*1703 FILLER_43_81
*1704 FILLER_43_90
*1705 FILLER_44_102
*1706 FILLER_44_113
*1707 FILLER_44_117
*1708 FILLER_44_122
*1709 FILLER_44_134
*1710 FILLER_44_14
*1711 FILLER_44_141
*1712 FILLER_44_153
*1713 FILLER_44_165
*1714 FILLER_44_177
*1715 FILLER_44_189
*1716 FILLER_44_195
*1717 FILLER_44_197
*1718 FILLER_44_209
*1719 FILLER_44_221
*1720 FILLER_44_23
*1721 FILLER_44_233
*1722 FILLER_44_245