*SPEF "ieee 1481-1999"
*DESIGN "my_design"
*DATE "11:11:11 Fri 11 11, 1111"
*VENDOR "OpenRCX"
*PROGRAM "Parallel Extraction"
*VERSION "1.0"
*DESIGN_FLOW "NAME_SCOPE LOCAL" "PIN_CAP NONE"
*DIVIDER /
*DELIMITER :
*BUS_DELIMITER []
*T_UNIT 1 NS
*C_UNIT 1 PF
*R_UNIT 1 OHM
*L_UNIT 1 HENRY

*NAME_MAP
*1 io_in[0]
*2 io_in[1]
*3 io_in[2]
*4 io_in[3]
*5 io_in[4]
*6 io_in[5]
*7 io_in[6]
*8 io_in[7]
*9 io_out[0]
*10 io_out[1]
*11 io_out[2]
*12 io_out[3]
*13 io_out[4]
*14 io_out[5]
*15 io_out[6]
*16 io_out[7]
*19 _000_
*20 _001_
*21 _002_
*22 _003_
*23 _004_
*24 _005_
*25 _006_
*26 _007_
*27 _008_
*28 _009_
*29 _010_
*30 _011_
*31 _012_
*32 _013_
*33 _014_
*34 _015_
*35 _016_
*36 _017_
*37 _018_
*38 _019_
*39 _020_
*40 _021_
*41 _022_
*42 _023_
*43 _024_
*44 _025_
*45 _026_
*46 _027_
*47 _028_
*48 _029_
*49 _030_
*50 _031_
*51 _032_
*52 _033_
*53 _034_
*54 _035_
*55 _036_
*56 _037_
*57 _038_
*58 _039_
*59 _040_
*60 _041_
*61 _042_
*62 _043_
*63 _044_
*64 _045_
*65 _046_
*66 _047_
*67 _048_
*68 _049_
*69 _050_
*70 _051_
*71 _052_
*72 _053_
*73 _054_
*74 _055_
*75 _056_
*76 _057_
*77 _058_
*78 _059_
*79 _060_
*80 _061_
*81 _062_
*82 _063_
*83 _064_
*84 _065_
*85 _066_
*86 _067_
*87 _068_
*88 _069_
*89 _070_
*90 _071_
*91 _072_
*92 _073_
*93 _074_
*94 _075_
*95 _076_
*96 _077_
*97 _078_
*98 _079_
*99 _080_
*100 _081_
*101 _082_
*102 _083_
*103 _084_
*104 _085_
*105 _086_
*106 _087_
*107 _088_
*108 _089_
*109 _090_
*110 _091_
*111 _092_
*112 _093_
*113 _094_
*114 _095_
*115 _096_
*116 _097_
*117 _098_
*118 _099_
*119 _100_
*120 _101_
*121 _102_
*122 _103_
*123 _104_
*124 _105_
*125 _106_
*126 _107_
*127 _108_
*128 _109_
*129 _110_
*130 _111_
*131 _112_
*132 _113_
*133 _114_
*134 _115_
*135 _116_
*136 _117_
*137 _118_
*138 _119_
*139 _120_
*140 _121_
*141 _122_
*142 _123_
*143 _124_
*144 _125_
*145 _126_
*146 _127_
*147 _128_
*148 _129_
*149 _130_
*150 _131_
*151 _132_
*152 _133_
*153 _134_
*154 _135_
*155 _136_
*156 _137_
*157 _138_
*158 _139_
*159 _140_
*160 _141_
*161 _142_
*162 _143_
*163 _144_
*164 _145_
*165 _146_
*166 _147_
*167 _148_
*168 _149_
*169 _150_
*170 _151_
*171 _152_
*172 _153_
*173 _154_
*174 _155_
*175 _156_
*176 _157_
*177 _158_
*178 _159_
*179 _160_
*180 _161_
*181 _162_
*182 _163_
*183 _164_
*184 _165_
*185 _166_
*186 _167_
*187 _168_
*188 _169_
*189 _170_
*190 _171_
*191 _172_
*192 _173_
*193 _174_
*194 _175_
*195 _176_
*196 _177_
*197 _178_
*198 _179_
*199 _180_
*200 _181_
*201 _182_
*202 _183_
*203 _184_
*204 _185_
*205 _186_
*206 _187_
*207 _188_
*208 _189_
*209 _190_
*210 _191_
*211 _192_
*212 _193_
*213 _194_
*214 _195_
*215 _196_
*216 _197_
*217 _198_
*218 _199_
*219 _200_
*220 _201_
*221 _202_
*222 _203_
*223 _204_
*224 _205_
*225 _206_
*226 _207_
*227 _208_
*228 _209_
*229 _210_
*230 _211_
*231 _212_
*232 _213_
*233 _214_
*234 _215_
*235 _216_
*236 _217_
*237 _218_
*238 _219_
*239 _220_
*240 _221_
*241 _222_
*242 _223_
*243 _224_
*244 _225_
*245 _226_
*246 _227_
*247 _228_
*248 _229_
*249 _230_
*250 _231_
*251 _232_
*252 _233_
*253 _234_
*254 _235_
*255 _236_
*256 _237_
*257 _238_
*258 _239_
*259 _240_
*260 _241_
*261 _242_
*262 _243_
*263 _244_
*264 _245_
*265 _246_
*266 _247_
*267 _248_
*268 _249_
*269 _250_
*270 _251_
*271 _252_
*272 _253_
*273 _254_
*274 _255_
*275 _256_
*276 _257_
*277 _258_
*278 _259_
*279 _260_
*280 _261_
*281 _262_
*282 _263_
*283 _264_
*284 _265_
*285 _266_
*286 _267_
*287 _268_
*288 _269_
*289 _270_
*290 _271_
*291 _272_
*292 _273_
*293 _274_
*294 _275_
*295 _276_
*296 _277_
*297 _278_
*298 _279_
*299 _280_
*300 _281_
*301 _282_
*302 _283_
*303 _284_
*304 _285_
*305 _286_
*306 _287_
*307 _288_
*308 _289_
*309 _290_
*310 _291_
*311 _292_
*312 _293_
*313 _294_
*314 _295_
*315 _296_
*316 _297_
*317 _298_
*318 _299_
*319 _300_
*320 _301_
*321 _302_
*322 _303_
*323 _304_
*324 _305_
*325 _306_
*326 _307_
*327 _308_
*328 _309_
*329 _310_
*330 _311_
*331 _312_
*332 _313_
*333 _314_
*334 _315_
*335 _316_
*336 _317_
*337 _318_
*338 _319_
*339 _320_
*340 _321_
*341 _322_
*342 _323_
*343 _324_
*344 _325_
*345 _326_
*346 _327_
*347 _328_
*348 _329_
*349 _330_
*350 _331_
*351 _332_
*352 _333_
*353 _334_
*354 _335_
*355 _336_
*356 _337_
*357 _338_
*358 _339_
*359 _340_
*360 _341_
*361 _342_
*362 _343_
*363 _344_
*364 _345_
*365 _346_
*366 _347_
*367 _348_
*368 _349_
*369 _350_
*370 _351_
*371 _352_
*372 _353_
*373 _354_
*374 _355_
*375 _356_
*376 _357_
*377 _358_
*378 _359_
*379 _360_
*380 _361_
*381 _362_
*382 _363_
*383 _364_
*384 _365_
*385 _366_
*386 clknet_0_io_in[4]
*387 clknet_1_0__leaf_io_in[4]
*388 clknet_1_1__leaf_io_in[4]
*389 mult_in_reg\[0\]
*390 mult_in_reg\[10\]
*391 mult_in_reg\[11\]
*392 mult_in_reg\[12\]
*393 mult_in_reg\[13\]
*394 mult_in_reg\[14\]
*395 mult_in_reg\[15\]
*396 mult_in_reg\[1\]
*397 mult_in_reg\[2\]
*398 mult_in_reg\[3\]
*399 mult_in_reg\[4\]
*400 mult_in_reg\[5\]
*401 mult_in_reg\[6\]
*402 mult_in_reg\[7\]
*403 mult_in_reg\[8\]
*404 mult_in_reg\[9\]
*405 my_deb\.d0\.DFF_CLOCK
*406 my_deb\.d0\.my_reg
*407 my_deb\.d1\.my_reg
*408 my_deb\.d2\.my_reg
*409 my_deb\.devo\.q_reg\[0\]
*410 my_deb\.devo\.q_reg\[1\]
*411 my_deb\.devo\.q_reg\[2\]
*412 my_deb\.devo\.q_reg\[3\]
*413 my_deb\.devo\.q_reg\[4\]
*414 my_deb\.devo\.q_reg\[5\]
*415 my_deb\.devo\.q_reg\[6\]
*416 my_deb\.valid1
*417 my_edge\.valid_dly
*418 net1
*419 net10
*420 net11
*421 net12
*422 net2
*423 net3
*424 net4
*425 net5
*426 net6
*427 net7
*428 net8
*429 net9
*430 FILLER_0_109
*431 FILLER_0_113
*432 FILLER_0_125
*433 FILLER_0_137
*434 FILLER_0_141
*435 FILLER_0_15
*436 FILLER_0_153
*437 FILLER_0_165
*438 FILLER_0_169
*439 FILLER_0_181
*440 FILLER_0_193
*441 FILLER_0_197
*442 FILLER_0_209
*443 FILLER_0_221
*444 FILLER_0_225
*445 FILLER_0_237
*446 FILLER_0_249
*447 FILLER_0_253
*448 FILLER_0_265
*449 FILLER_0_27
*450 FILLER_0_277
*451 FILLER_0_281
*452 FILLER_0_29
*453 FILLER_0_293
*454 FILLER_0_3
*455 FILLER_0_41
*456 FILLER_0_53
*457 FILLER_0_57
*458 FILLER_0_69
*459 FILLER_0_81
*460 FILLER_0_85
*461 FILLER_0_97
*462 FILLER_10_102
*463 FILLER_10_114
*464 FILLER_10_126
*465 FILLER_10_138
*466 FILLER_10_141
*467 FILLER_10_153
*468 FILLER_10_165
*469 FILLER_10_177
*470 FILLER_10_189
*471 FILLER_10_19
*472 FILLER_10_195
*473 FILLER_10_197
*474 FILLER_10_209
*475 FILLER_10_221
*476 FILLER_10_233
*477 FILLER_10_245
*478 FILLER_10_251
*479 FILLER_10_253
*480 FILLER_10_26
*481 FILLER_10_265
*482 FILLER_10_277
*483 FILLER_10_289
*484 FILLER_10_29
*485 FILLER_10_297
*486 FILLER_10_3
*487 FILLER_10_33
*488 FILLER_10_38
*489 FILLER_10_62
*490 FILLER_10_74
*491 FILLER_10_8
*492 FILLER_10_81
*493 FILLER_10_85
*494 FILLER_10_90
*495 FILLER_11_102
*496 FILLER_11_110
*497 FILLER_11_113
*498 FILLER_11_125
*499 FILLER_11_137
*500 FILLER_11_149
*501 FILLER_11_161
*502 FILLER_11_167
*503 FILLER_11_169
*504 FILLER_11_181
*505 FILLER_11_193
*506 FILLER_11_205
*507 FILLER_11_217
*508 FILLER_11_223
*509 FILLER_11_225
*510 FILLER_11_237
*511 FILLER_11_249
*512 FILLER_11_261
*513 FILLER_11_273
*514 FILLER_11_279
*515 FILLER_11_28
*516 FILLER_11_281
*517 FILLER_11_293
*518 FILLER_11_3
*519 FILLER_11_52
*520 FILLER_11_57
*521 FILLER_11_63
*522 FILLER_11_67
*523 FILLER_11_75
*524 FILLER_11_81
*525 FILLER_12_107
*526 FILLER_12_115
*527 FILLER_12_127
*528 FILLER_12_139
*529 FILLER_12_141
*530 FILLER_12_153
*531 FILLER_12_165
*532 FILLER_12_177
*533 FILLER_12_189
*534 FILLER_12_195
*535 FILLER_12_197
*536 FILLER_12_209
*537 FILLER_12_221
*538 FILLER_12_233
*539 FILLER_12_245
*540 FILLER_12_251
*541 FILLER_12_253
*542 FILLER_12_26
*543 FILLER_12_265
*544 FILLER_12_277
*545 FILLER_12_289
*546 FILLER_12_29
*547 FILLER_12_297
*548 FILLER_12_3
*549 FILLER_12_40
*550 FILLER_12_44
*551 FILLER_12_65
*552 FILLER_12_69
*553 FILLER_12_79
*554 FILLER_12_83
*555 FILLER_12_85
*556 FILLER_13_110
*557 FILLER_13_113
*558 FILLER_13_120
*559 FILLER_13_132
*560 FILLER_13_14
*561 FILLER_13_144
*562 FILLER_13_156
*563 FILLER_13_169
*564 FILLER_13_181
*565 FILLER_13_193
*566 FILLER_13_205
*567 FILLER_13_217
*568 FILLER_13_223
*569 FILLER_13_225
*570 FILLER_13_237
*571 FILLER_13_249
*572 FILLER_13_261
*573 FILLER_13_273
*574 FILLER_13_279
*575 FILLER_13_281
*576 FILLER_13_293
*577 FILLER_13_3
*578 FILLER_13_45
*579 FILLER_13_49
*580 FILLER_13_54
*581 FILLER_13_57
*582 FILLER_13_66
*583 FILLER_13_79
*584 FILLER_13_92
*585 FILLER_14_101
*586 FILLER_14_111
*587 FILLER_14_123
*588 FILLER_14_135
*589 FILLER_14_139
*590 FILLER_14_141
*591 FILLER_14_153
*592 FILLER_14_165
*593 FILLER_14_17
*594 FILLER_14_177
*595 FILLER_14_189
*596 FILLER_14_195
*597 FILLER_14_197
*598 FILLER_14_209
*599 FILLER_14_221
*600 FILLER_14_233
*601 FILLER_14_245
*602 FILLER_14_251
*603 FILLER_14_253
*604 FILLER_14_26
*605 FILLER_14_265
*606 FILLER_14_277
*607 FILLER_14_289
*608 FILLER_14_29
*609 FILLER_14_297
*610 FILLER_14_3
*611 FILLER_14_53
*612 FILLER_14_7
*613 FILLER_14_78
*614 FILLER_14_85
*615 FILLER_14_90
*616 FILLER_14_96
*617 FILLER_15_103
*618 FILLER_15_111
*619 FILLER_15_113
*620 FILLER_15_122
*621 FILLER_15_13
*622 FILLER_15_134
*623 FILLER_15_146
*624 FILLER_15_158
*625 FILLER_15_166
*626 FILLER_15_169
*627 FILLER_15_181
*628 FILLER_15_193
*629 FILLER_15_205
*630 FILLER_15_217
*631 FILLER_15_223
*632 FILLER_15_225
*633 FILLER_15_237
*634 FILLER_15_249
*635 FILLER_15_261
*636 FILLER_15_273
*637 FILLER_15_279
*638 FILLER_15_281
*639 FILLER_15_293
*640 FILLER_15_3
*641 FILLER_15_40
*642 FILLER_15_53
*643 FILLER_15_57
*644 FILLER_15_79
*645 FILLER_15_9
*646 FILLER_16_108
*647 FILLER_16_122
*648 FILLER_16_134
*649 FILLER_16_14
*650 FILLER_16_141
*651 FILLER_16_153
*652 FILLER_16_165
*653 FILLER_16_177
*654 FILLER_16_189
*655 FILLER_16_195
*656 FILLER_16_197
*657 FILLER_16_209
*658 FILLER_16_221
*659 FILLER_16_233
*660 FILLER_16_24
*661 FILLER_16_245
*662 FILLER_16_251
*663 FILLER_16_253
*664 FILLER_16_265
*665 FILLER_16_277
*666 FILLER_16_289
*667 FILLER_16_29
*668 FILLER_16_297
*669 FILLER_16_3
*670 FILLER_16_35
*671 FILLER_16_64
*672 FILLER_16_77
*673 FILLER_16_83
*674 FILLER_16_85
*675 FILLER_16_97
*676 FILLER_17_102
*677 FILLER_17_109
*678 FILLER_17_113
*679 FILLER_17_118
*680 FILLER_17_125
*681 FILLER_17_137
*682 FILLER_17_149
*683 FILLER_17_161
*684 FILLER_17_167
*685 FILLER_17_169
*686 FILLER_17_181
*687 FILLER_17_193
*688 FILLER_17_205
*689 FILLER_17_217
*690 FILLER_17_223
*691 FILLER_17_225
*692 FILLER_17_237
*693 FILLER_17_249
*694 FILLER_17_261
*695 FILLER_17_273
*696 FILLER_17_279
*697 FILLER_17_28
*698 FILLER_17_281
*699 FILLER_17_293
*700 FILLER_17_3
*701 FILLER_17_36
*702 FILLER_17_53
*703 FILLER_17_57
*704 FILLER_17_72
*705 FILLER_17_96
*706 FILLER_18_108
*707 FILLER_18_114
*708 FILLER_18_122
*709 FILLER_18_131
*710 FILLER_18_139
*711 FILLER_18_141
*712 FILLER_18_153
*713 FILLER_18_165
*714 FILLER_18_177
*715 FILLER_18_189
*716 FILLER_18_195
*717 FILLER_18_197
*718 FILLER_18_209
*719 FILLER_18_221
*720 FILLER_18_233
*721 FILLER_18_245
*722 FILLER_18_25
*723 FILLER_18_251
*724 FILLER_18_253
*725 FILLER_18_265
*726 FILLER_18_277
*727 FILLER_18_289
*728 FILLER_18_29
*729 FILLER_18_297
*730 FILLER_18_3
*731 FILLER_18_40
*732 FILLER_18_48
*733 FILLER_18_75
*734 FILLER_18_82
*735 FILLER_18_85
*736 FILLER_19_104
*737 FILLER_19_113
*738 FILLER_19_121
*739 FILLER_19_130
*740 FILLER_19_142
*741 FILLER_19_154
*742 FILLER_19_166
*743 FILLER_19_169
*744 FILLER_19_18
*745 FILLER_19_181
*746 FILLER_19_193
*747 FILLER_19_205
*748 FILLER_19_217
*749 FILLER_19_223
*750 FILLER_19_225
*751 FILLER_19_237
*752 FILLER_19_24
*753 FILLER_19_249
*754 FILLER_19_261
*755 FILLER_19_273
*756 FILLER_19_279
*757 FILLER_19_281
*758 FILLER_19_293
*759 FILLER_19_3
*760 FILLER_19_46
*761 FILLER_19_54
*762 FILLER_19_57
*763 FILLER_19_66
*764 FILLER_19_79
*765 FILLER_1_105
*766 FILLER_1_111
*767 FILLER_1_113
*768 FILLER_1_125
*769 FILLER_1_137
*770 FILLER_1_149
*771 FILLER_1_161
*772 FILLER_1_167
*773 FILLER_1_169
*774 FILLER_1_181
*775 FILLER_1_193
*776 FILLER_1_20
*777 FILLER_1_205
*778 FILLER_1_217
*779 FILLER_1_223
*780 FILLER_1_225
*781 FILLER_1_237
*782 FILLER_1_249
*783 FILLER_1_261
*784 FILLER_1_273
*785 FILLER_1_279
*786 FILLER_1_281
*787 FILLER_1_293
*788 FILLER_1_3
*789 FILLER_1_32
*790 FILLER_1_44
*791 FILLER_1_57
*792 FILLER_1_69
*793 FILLER_1_8
*794 FILLER_1_81
*795 FILLER_1_93
*796 FILLER_20_102
*797 FILLER_20_110
*798 FILLER_20_118
*799 FILLER_20_125
*800 FILLER_20_137
*801 FILLER_20_141
*802 FILLER_20_153
*803 FILLER_20_165
*804 FILLER_20_17
*805 FILLER_20_177
*806 FILLER_20_189
*807 FILLER_20_195
*808 FILLER_20_197
*809 FILLER_20_209
*810 FILLER_20_221
*811 FILLER_20_233
*812 FILLER_20_245
*813 FILLER_20_251
*814 FILLER_20_253
*815 FILLER_20_26
*816 FILLER_20_265
*817 FILLER_20_277
*818 FILLER_20_289
*819 FILLER_20_29
*820 FILLER_20_297
*821 FILLER_20_3
*822 FILLER_20_33
*823 FILLER_20_41
*824 FILLER_20_45
*825 FILLER_20_49
*826 FILLER_20_60
*827 FILLER_20_66
*828 FILLER_20_73
*829 FILLER_20_81
*830 FILLER_20_85
*831 FILLER_20_9
*832 FILLER_20_96
*833 FILLER_21_110
*834 FILLER_21_113
*835 FILLER_21_125
*836 FILLER_21_137
*837 FILLER_21_149
*838 FILLER_21_161
*839 FILLER_21_167
*840 FILLER_21_169
*841 FILLER_21_18
*842 FILLER_21_181
*843 FILLER_21_193
*844 FILLER_21_205
*845 FILLER_21_217
*846 FILLER_21_223
*847 FILLER_21_225
*848 FILLER_21_237
*849 FILLER_21_24
*850 FILLER_21_249
*851 FILLER_21_261
*852 FILLER_21_273
*853 FILLER_21_279
*854 FILLER_21_281
*855 FILLER_21_293
*856 FILLER_21_3
*857 FILLER_21_32
*858 FILLER_21_43
*859 FILLER_21_54
*860 FILLER_21_57
*861 FILLER_21_67
*862 FILLER_21_78
*863 FILLER_21_8
*864 FILLER_21_82
*865 FILLER_21_92
*866 FILLER_21_99
*867 FILLER_22_103
*868 FILLER_22_111
*869 FILLER_22_120
*870 FILLER_22_130
*871 FILLER_22_138
*872 FILLER_22_141
*873 FILLER_22_153
*874 FILLER_22_165
*875 FILLER_22_177
*876 FILLER_22_189
*877 FILLER_22_19
*878 FILLER_22_195
*879 FILLER_22_197
*880 FILLER_22_209
*881 FILLER_22_221
*882 FILLER_22_233
*883 FILLER_22_245
*884 FILLER_22_251
*885 FILLER_22_253
*886 FILLER_22_26
*887 FILLER_22_265
*888 FILLER_22_277
*889 FILLER_22_289
*890 FILLER_22_29
*891 FILLER_22_297
*892 FILLER_22_3
*893 FILLER_22_38
*894 FILLER_22_45
*895 FILLER_22_59
*896 FILLER_22_69
*897 FILLER_22_80
*898 FILLER_22_85
*899 FILLER_22_93
*900 FILLER_23_108
*901 FILLER_23_113
*902 FILLER_23_121
*903 FILLER_23_128
*904 FILLER_23_140
*905 FILLER_23_152
*906 FILLER_23_16
*907 FILLER_23_164
*908 FILLER_23_169
*909 FILLER_23_181
*910 FILLER_23_193
*911 FILLER_23_205
*912 FILLER_23_217
*913 FILLER_23_223
*914 FILLER_23_225
*915 FILLER_23_237
*916 FILLER_23_24
*917 FILLER_23_249
*918 FILLER_23_261
*919 FILLER_23_273
*920 FILLER_23_279
*921 FILLER_23_281
*922 FILLER_23_293
*923 FILLER_23_3
*924 FILLER_23_33
*925 FILLER_23_40
*926 FILLER_23_46
*927 FILLER_23_53
*928 FILLER_23_57
*929 FILLER_23_62
*930 FILLER_23_76
*931 FILLER_23_88
*932 FILLER_23_95
*933 FILLER_24_118
*934 FILLER_24_124
*935 FILLER_24_132
*936 FILLER_24_141
*937 FILLER_24_15
*938 FILLER_24_153
*939 FILLER_24_165
*940 FILLER_24_177
*941 FILLER_24_189
*942 FILLER_24_195
*943 FILLER_24_197
*944 FILLER_24_209
*945 FILLER_24_221
*946 FILLER_24_233
*947 FILLER_24_245
*948 FILLER_24_251
*949 FILLER_24_253
*950 FILLER_24_26
*951 FILLER_24_265
*952 FILLER_24_277
*953 FILLER_24_289
*954 FILLER_24_29
*955 FILLER_24_297
*956 FILLER_24_3
*957 FILLER_24_41
*958 FILLER_24_49
*959 FILLER_24_57
*960 FILLER_24_65
*961 FILLER_24_76
*962 FILLER_24_85
*963 FILLER_24_91
*964 FILLER_24_99
*965 FILLER_25_110
*966 FILLER_25_113
*967 FILLER_25_120
*968 FILLER_25_127
*969 FILLER_25_13
*970 FILLER_25_137
*971 FILLER_25_149
*972 FILLER_25_161
*973 FILLER_25_167
*974 FILLER_25_169
*975 FILLER_25_181
*976 FILLER_25_193
*977 FILLER_25_205
*978 FILLER_25_21
*979 FILLER_25_217
*980 FILLER_25_223
*981 FILLER_25_225
*982 FILLER_25_237
*983 FILLER_25_249
*984 FILLER_25_261
*985 FILLER_25_273
*986 FILLER_25_279
*987 FILLER_25_28
*988 FILLER_25_281
*989 FILLER_25_293
*990 FILLER_25_3
*991 FILLER_25_38
*992 FILLER_25_54
*993 FILLER_25_57
*994 FILLER_25_71
*995 FILLER_25_86
*996 FILLER_25_99
*997 FILLER_26_110
*998 FILLER_26_119
*999 FILLER_26_126
*1000 FILLER_26_130
*1001 FILLER_26_135
*1002 FILLER_26_139
*1003 FILLER_26_141
*1004 FILLER_26_153
*1005 FILLER_26_165
*1006 FILLER_26_17
*1007 FILLER_26_177
*1008 FILLER_26_189
*1009 FILLER_26_195
*1010 FILLER_26_197
*1011 FILLER_26_209
*1012 FILLER_26_221
*1013 FILLER_26_233
*1014 FILLER_26_245
*1015 FILLER_26_251
*1016 FILLER_26_253
*1017 FILLER_26_26
*1018 FILLER_26_265
*1019 FILLER_26_277
*1020 FILLER_26_289
*1021 FILLER_26_29
*1022 FILLER_26_297
*1023 FILLER_26_3
*1024 FILLER_26_39
*1025 FILLER_26_50
*1026 FILLER_26_62
*1027 FILLER_26_73
*1028 FILLER_26_81
*1029 FILLER_26_85
*1030 FILLER_26_97
*1031 FILLER_27_102
*1032 FILLER_27_110
*1033 FILLER_27_113
*1034 FILLER_27_122
*1035 FILLER_27_134
*1036 FILLER_27_146
*1037 FILLER_27_158
*1038 FILLER_27_166
*1039 FILLER_27_169
*1040 FILLER_27_181
*1041 FILLER_27_19
*1042 FILLER_27_193
*1043 FILLER_27_205
*1044 FILLER_27_217
*1045 FILLER_27_223
*1046 FILLER_27_225
*1047 FILLER_27_237
*1048 FILLER_27_249
*1049 FILLER_27_26
*1050 FILLER_27_261
*1051 FILLER_27_273
*1052 FILLER_27_279
*1053 FILLER_27_281
*1054 FILLER_27_293
*1055 FILLER_27_3
*1056 FILLER_27_39
*1057 FILLER_27_45
*1058 FILLER_27_52
*1059 FILLER_27_57
*1060 FILLER_27_70
*1061 FILLER_27_74
*1062 FILLER_27_81
*1063 FILLER_27_93
*1064 FILLER_27_97
*1065 FILLER_28_111
*1066 FILLER_28_119
*1067 FILLER_28_128
*1068 FILLER_28_13
*1069 FILLER_28_136
*1070 FILLER_28_141
*1071 FILLER_28_153
*1072 FILLER_28_165
*1073 FILLER_28_177
*1074 FILLER_28_189
*1075 FILLER_28_195
*1076 FILLER_28_197
*1077 FILLER_28_209
*1078 FILLER_28_221
*1079 FILLER_28_23
*1080 FILLER_28_233
*1081 FILLER_28_245
*1082 FILLER_28_251
*1083 FILLER_28_253
*1084 FILLER_28_265
*1085 FILLER_28_27
*1086 FILLER_28_277
*1087 FILLER_28_289
*1088 FILLER_28_29
*1089 FILLER_28_297
*1090 FILLER_28_3
*1091 FILLER_28_34
*1092 FILLER_28_46
*1093 FILLER_28_57
*1094 FILLER_28_71
*1095 FILLER_28_82
*1096 FILLER_28_85
*1097 FILLER_28_97
*1098 FILLER_29_10
*1099 FILLER_29_109
*1100 FILLER_29_113
*1101 FILLER_29_119
*1102 FILLER_29_137
*1103 FILLER_29_149
*1104 FILLER_29_161
*1105 FILLER_29_167
*1106 FILLER_29_169
*1107 FILLER_29_181
*1108 FILLER_29_193
*1109 FILLER_29_20
*1110 FILLER_29_205
*1111 FILLER_29_217
*1112 FILLER_29_223
*1113 FILLER_29_225
*1114 FILLER_29_237
*1115 FILLER_29_249
*1116 FILLER_29_261
*1117 FILLER_29_273
*1118 FILLER_29_279
*1119 FILLER_29_28
*1120 FILLER_29_281
*1121 FILLER_29_293
*1122 FILLER_29_3
*1123 FILLER_29_37
*1124 FILLER_29_44
*1125 FILLER_29_57
*1126 FILLER_29_63
*1127 FILLER_29_72
*1128 FILLER_29_79
*1129 FILLER_29_83
*1130 FILLER_29_87
*1131 FILLER_29_97
*1132 FILLER_2_109
*1133 FILLER_2_121
*1134 FILLER_2_133
*1135 FILLER_2_139
*1136 FILLER_2_141
*1137 FILLER_2_15
*1138 FILLER_2_153
*1139 FILLER_2_165
*1140 FILLER_2_177
*1141 FILLER_2_189
*1142 FILLER_2_195
*1143 FILLER_2_197
*1144 FILLER_2_209
*1145 FILLER_2_221
*1146 FILLER_2_233
*1147 FILLER_2_245
*1148 FILLER_2_251
*1149 FILLER_2_253
*1150 FILLER_2_265
*1151 FILLER_2_27
*1152 FILLER_2_277
*1153 FILLER_2_289
*1154 FILLER_2_29
*1155 FILLER_2_297
*1156 FILLER_2_3
*1157 FILLER_2_41
*1158 FILLER_2_53
*1159 FILLER_2_65
*1160 FILLER_2_77
*1161 FILLER_2_83
*1162 FILLER_2_85
*1163 FILLER_2_97
*1164 FILLER_30_101
*1165 FILLER_30_108
*1166 FILLER_30_116
*1167 FILLER_30_12
*1168 FILLER_30_123
*1169 FILLER_30_131
*1170 FILLER_30_138
*1171 FILLER_30_141
*1172 FILLER_30_147
*1173 FILLER_30_159
*1174 FILLER_30_171
*1175 FILLER_30_183
*1176 FILLER_30_195
*1177 FILLER_30_197
*1178 FILLER_30_209
*1179 FILLER_30_22
*1180 FILLER_30_221
*1181 FILLER_30_233
*1182 FILLER_30_245
*1183 FILLER_30_251
*1184 FILLER_30_253
*1185 FILLER_30_265
*1186 FILLER_30_277
*1187 FILLER_30_289
*1188 FILLER_30_29
*1189 FILLER_30_297
*1190 FILLER_30_3
*1191 FILLER_30_37
*1192 FILLER_30_49
*1193 FILLER_30_57
*1194 FILLER_30_64
*1195 FILLER_30_76
*1196 FILLER_30_82
*1197 FILLER_30_85
*1198 FILLER_30_93
*1199 FILLER_31_100
*1200 FILLER_31_107
*1201 FILLER_31_11
*1202 FILLER_31_111
*1203 FILLER_31_113
*1204 FILLER_31_127
*1205 FILLER_31_137
*1206 FILLER_31_149
*1207 FILLER_31_161
*1208 FILLER_31_167
*1209 FILLER_31_169
*1210 FILLER_31_181
*1211 FILLER_31_193
*1212 FILLER_31_205
*1213 FILLER_31_217
*1214 FILLER_31_22
*1215 FILLER_31_223
*1216 FILLER_31_225
*1217 FILLER_31_237
*1218 FILLER_31_249
*1219 FILLER_31_261
*1220 FILLER_31_273
*1221 FILLER_31_279
*1222 FILLER_31_281
*1223 FILLER_31_293
*1224 FILLER_31_3
*1225 FILLER_31_31
*1226 FILLER_31_39
*1227 FILLER_31_47
*1228 FILLER_31_54
*1229 FILLER_31_57
*1230 FILLER_31_66
*1231 FILLER_31_73
*1232 FILLER_31_85
*1233 FILLER_31_92
*1234 FILLER_32_105
*1235 FILLER_32_112
*1236 FILLER_32_116
*1237 FILLER_32_12
*1238 FILLER_32_121
*1239 FILLER_32_127
*1240 FILLER_32_132
*1241 FILLER_32_141
*1242 FILLER_32_153
*1243 FILLER_32_16
*1244 FILLER_32_165
*1245 FILLER_32_177
*1246 FILLER_32_189
*1247 FILLER_32_195
*1248 FILLER_32_197
*1249 FILLER_32_209
*1250 FILLER_32_221
*1251 FILLER_32_233
*1252 FILLER_32_24
*1253 FILLER_32_245
*1254 FILLER_32_251
*1255 FILLER_32_253
*1256 FILLER_32_265
*1257 FILLER_32_277
*1258 FILLER_32_289
*1259 FILLER_32_29
*1260 FILLER_32_297
*1261 FILLER_32_3
*1262 FILLER_32_40
*1263 FILLER_32_48
*1264 FILLER_32_55
*1265 FILLER_32_63
*1266 FILLER_32_73
*1267 FILLER_32_81
*1268 FILLER_32_85
*1269 FILLER_32_95
*1270 FILLER_33_104
*1271 FILLER_33_110
*1272 FILLER_33_113
*1273 FILLER_33_121
*1274 FILLER_33_128
*1275 FILLER_33_140
*1276 FILLER_33_152
*1277 FILLER_33_164
*1278 FILLER_33_169
*1279 FILLER_33_181
*1280 FILLER_33_193
*1281 FILLER_33_205
*1282 FILLER_33_217
*1283 FILLER_33_22
*1284 FILLER_33_223
*1285 FILLER_33_225
*1286 FILLER_33_237
*1287 FILLER_33_249
*1288 FILLER_33_261
*1289 FILLER_33_273
*1290 FILLER_33_279
*1291 FILLER_33_281
*1292 FILLER_33_293
*1293 FILLER_33_3
*1294 FILLER_33_30
*1295 FILLER_33_37
*1296 FILLER_33_45
*1297 FILLER_33_54
*1298 FILLER_33_57
*1299 FILLER_33_70
*1300 FILLER_33_81
*1301 FILLER_33_9
*1302 FILLER_33_92
*1303 FILLER_34_106
*1304 FILLER_34_114
*1305 FILLER_34_123
*1306 FILLER_34_134
*1307 FILLER_34_141
*1308 FILLER_34_15
*1309 FILLER_34_153
*1310 FILLER_34_165
*1311 FILLER_34_177
*1312 FILLER_34_189
*1313 FILLER_34_195
*1314 FILLER_34_197
*1315 FILLER_34_209
*1316 FILLER_34_22
*1317 FILLER_34_221
*1318 FILLER_34_233
*1319 FILLER_34_245
*1320 FILLER_34_251
*1321 FILLER_34_253
*1322 FILLER_34_265
*1323 FILLER_34_277
*1324 FILLER_34_289
*1325 FILLER_34_29
*1326 FILLER_34_297
*1327 FILLER_34_3
*1328 FILLER_34_38
*1329 FILLER_34_46
*1330 FILLER_34_54
*1331 FILLER_34_58
*1332 FILLER_34_64
*1333 FILLER_34_73
*1334 FILLER_34_82
*1335 FILLER_34_85
*1336 FILLER_34_9
*1337 FILLER_34_94
*1338 FILLER_35_108
*1339 FILLER_35_113
*1340 FILLER_35_121
*1341 FILLER_35_128
*1342 FILLER_35_140
*1343 FILLER_35_152
*1344 FILLER_35_16
*1345 FILLER_35_164
*1346 FILLER_35_169
*1347 FILLER_35_181
*1348 FILLER_35_193
*1349 FILLER_35_205
*1350 FILLER_35_217
*1351 FILLER_35_223
*1352 FILLER_35_225
*1353 FILLER_35_237
*1354 FILLER_35_24
*1355 FILLER_35_249
*1356 FILLER_35_261
*1357 FILLER_35_273
*1358 FILLER_35_279
*1359 FILLER_35_28
*1360 FILLER_35_281
*1361 FILLER_35_293
*1362 FILLER_35_3
*1363 FILLER_35_35
*1364 FILLER_35_43
*1365 FILLER_35_54
*1366 FILLER_35_57
*1367 FILLER_35_61
*1368 FILLER_35_68
*1369 FILLER_35_79
*1370 FILLER_35_87
*1371 FILLER_35_95
*1372 FILLER_35_99
*1373 FILLER_36_106
*1374 FILLER_36_112
*1375 FILLER_36_120
*1376 FILLER_36_128
*1377 FILLER_36_141
*1378 FILLER_36_15
*1379 FILLER_36_153
*1380 FILLER_36_165
*1381 FILLER_36_177
*1382 FILLER_36_189
*1383 FILLER_36_195
*1384 FILLER_36_197
*1385 FILLER_36_209
*1386 FILLER_36_221
*1387 FILLER_36_233
*1388 FILLER_36_245
*1389 FILLER_36_251
*1390 FILLER_36_253
*1391 FILLER_36_26
*1392 FILLER_36_265
*1393 FILLER_36_277
*1394 FILLER_36_289
*1395 FILLER_36_29
*1396 FILLER_36_297
*1397 FILLER_36_3
*1398 FILLER_36_38
*1399 FILLER_36_46
*1400 FILLER_36_53
*1401 FILLER_36_61
*1402 FILLER_36_7
*1403 FILLER_36_70
*1404 FILLER_36_82
*1405 FILLER_36_85
*1406 FILLER_36_91
*1407 FILLER_36_98
*1408 FILLER_37_100
*1409 FILLER_37_109
*1410 FILLER_37_113
*1411 FILLER_37_118
*1412 FILLER_37_12
*1413 FILLER_37_122
*1414 FILLER_37_131
*1415 FILLER_37_142
*1416 FILLER_37_152
*1417 FILLER_37_164
*1418 FILLER_37_169
*1419 FILLER_37_181
*1420 FILLER_37_193
*1421 FILLER_37_20
*1422 FILLER_37_205
*1423 FILLER_37_217
*1424 FILLER_37_223
*1425 FILLER_37_225
*1426 FILLER_37_237
*1427 FILLER_37_249
*1428 FILLER_37_26
*1429 FILLER_37_261
*1430 FILLER_37_273
*1431 FILLER_37_279
*1432 FILLER_37_281
*1433 FILLER_37_293
*1434 FILLER_37_3
*1435 FILLER_37_34
*1436 FILLER_37_41
*1437 FILLER_37_47
*1438 FILLER_37_54
*1439 FILLER_37_57
*1440 FILLER_37_66
*1441 FILLER_37_72
*1442 FILLER_37_79
*1443 FILLER_37_87
*1444 FILLER_37_92
*1445 FILLER_38_106
*1446 FILLER_38_114
*1447 FILLER_38_128
*1448 FILLER_38_13
*1449 FILLER_38_141
*1450 FILLER_38_153
*1451 FILLER_38_165
*1452 FILLER_38_177
*1453 FILLER_38_189
*1454 FILLER_38_195
*1455 FILLER_38_197
*1456 FILLER_38_209
*1457 FILLER_38_22
*1458 FILLER_38_221
*1459 FILLER_38_233
*1460 FILLER_38_245
*1461 FILLER_38_251
*1462 FILLER_38_253
*1463 FILLER_38_265
*1464 FILLER_38_277
*1465 FILLER_38_289
*1466 FILLER_38_29
*1467 FILLER_38_297
*1468 FILLER_38_3
*1469 FILLER_38_38
*1470 FILLER_38_46
*1471 FILLER_38_53
*1472 FILLER_38_60
*1473 FILLER_38_71
*1474 FILLER_38_75
*1475 FILLER_38_82
*1476 FILLER_38_85
*1477 FILLER_38_91
*1478 FILLER_38_98
*1479 FILLER_39_106
*1480 FILLER_39_113
*1481 FILLER_39_118
*1482 FILLER_39_125
*1483 FILLER_39_140
*1484 FILLER_39_15
*1485 FILLER_39_152
*1486 FILLER_39_164
*1487 FILLER_39_169
*1488 FILLER_39_181
*1489 FILLER_39_193
*1490 FILLER_39_205
*1491 FILLER_39_217
*1492 FILLER_39_223
*1493 FILLER_39_225
*1494 FILLER_39_23
*1495 FILLER_39_237
*1496 FILLER_39_249
*1497 FILLER_39_261
*1498 FILLER_39_273
*1499 FILLER_39_279
*1500 FILLER_39_281
*1501 FILLER_39_293
*1502 FILLER_39_3
*1503 FILLER_39_32
*1504 FILLER_39_36
*1505 FILLER_39_40
*1506 FILLER_39_52
*1507 FILLER_39_57
*1508 FILLER_39_75
*1509 FILLER_39_81
*1510 FILLER_39_88
*1511 FILLER_39_96
*1512 FILLER_3_105
*1513 FILLER_3_111
*1514 FILLER_3_113
*1515 FILLER_3_125
*1516 FILLER_3_137
*1517 FILLER_3_149
*1518 FILLER_3_161
*1519 FILLER_3_167
*1520 FILLER_3_169
*1521 FILLER_3_181
*1522 FILLER_3_193
*1523 FILLER_3_20
*1524 FILLER_3_205
*1525 FILLER_3_217
*1526 FILLER_3_223
*1527 FILLER_3_225
*1528 FILLER_3_237
*1529 FILLER_3_249
*1530 FILLER_3_261
*1531 FILLER_3_273
*1532 FILLER_3_279
*1533 FILLER_3_281
*1534 FILLER_3_293
*1535 FILLER_3_3
*1536 FILLER_3_32
*1537 FILLER_3_44
*1538 FILLER_3_57
*1539 FILLER_3_69
*1540 FILLER_3_8
*1541 FILLER_3_81
*1542 FILLER_3_93
*1543 FILLER_40_106
*1544 FILLER_40_118
*1545 FILLER_40_126
*1546 FILLER_40_130
*1547 FILLER_40_138
*1548 FILLER_40_141
*1549 FILLER_40_150
*1550 FILLER_40_162
*1551 FILLER_40_17
*1552 FILLER_40_174
*1553 FILLER_40_186
*1554 FILLER_40_194
*1555 FILLER_40_197
*1556 FILLER_40_209
*1557 FILLER_40_221
*1558 FILLER_40_233
*1559 FILLER_40_245
*1560 FILLER_40_251
*1561 FILLER_40_253
*1562 FILLER_40_26
*1563 FILLER_40_265
*1564 FILLER_40_277
*1565 FILLER_40_289
*1566 FILLER_40_29
*1567 FILLER_40_297
*1568 FILLER_40_3
*1569 FILLER_40_40
*1570 FILLER_40_58
*1571 FILLER_40_64
*1572 FILLER_40_71
*1573 FILLER_40_78
*1574 FILLER_40_85
*1575 FILLER_40_90
*1576 FILLER_40_98
*1577 FILLER_41_106
*1578 FILLER_41_11
*1579 FILLER_41_113
*1580 FILLER_41_122
*1581 FILLER_41_129
*1582 FILLER_41_140
*1583 FILLER_41_152
*1584 FILLER_41_164
*1585 FILLER_41_169
*1586 FILLER_41_181
*1587 FILLER_41_193
*1588 FILLER_41_20
*1589 FILLER_41_205
*1590 FILLER_41_217
*1591 FILLER_41_223
*1592 FILLER_41_225
*1593 FILLER_41_237
*1594 FILLER_41_249
*1595 FILLER_41_26
*1596 FILLER_41_261
*1597 FILLER_41_273
*1598 FILLER_41_279
*1599 FILLER_41_281
*1600 FILLER_41_293
*1601 FILLER_41_3
*1602 FILLER_41_32
*1603 FILLER_41_42
*1604 FILLER_41_52
*1605 FILLER_41_57
*1606 FILLER_41_67
*1607 FILLER_41_78
*1608 FILLER_41_89
*1609 FILLER_41_98
*1610 FILLER_42_107
*1611 FILLER_42_114
*1612 FILLER_42_12
*1613 FILLER_42_123
*1614 FILLER_42_135
*1615 FILLER_42_139
*1616 FILLER_42_141
*1617 FILLER_42_153
*1618 FILLER_42_165
*1619 FILLER_42_177
*1620 FILLER_42_189
*1621 FILLER_42_195
*1622 FILLER_42_197
*1623 FILLER_42_209
*1624 FILLER_42_22
*1625 FILLER_42_221
*1626 FILLER_42_233
*1627 FILLER_42_245
*1628 FILLER_42_251
*1629 FILLER_42_253
*1630 FILLER_42_265
*1631 FILLER_42_277
*1632 FILLER_42_289
*1633 FILLER_42_29
*1634 FILLER_42_297
*1635 FILLER_42_3
*1636 FILLER_42_37
*1637 FILLER_42_43
*1638 FILLER_42_49
*1639 FILLER_42_58
*1640 FILLER_42_67
*1641 FILLER_42_75
*1642 FILLER_42_82
*1643 FILLER_42_85
*1644 FILLER_42_99
*1645 FILLER_43_108
*1646 FILLER_43_11
*1647 FILLER_43_113
*1648 FILLER_43_125
*1649 FILLER_43_140
*1650 FILLER_43_152
*1651 FILLER_43_164
*1652 FILLER_43_169
*1653 FILLER_43_181
*1654 FILLER_43_19
*1655 FILLER_43_193
*1656 FILLER_43_205
*1657 FILLER_43_217
*1658 FILLER_43_223
*1659 FILLER_43_225
*1660 FILLER_43_237
*1661 FILLER_43_249
*1662 FILLER_43_261
*1663 FILLER_43_273
*1664 FILLER_43_279
*1665 FILLER_43_281
*1666 FILLER_43_293
*1667 FILLER_43_3
*1668 FILLER_43_37
*1669 FILLER_43_45
*1670 FILLER_43_53
*1671 FILLER_43_57
*1672 FILLER_43_66
*1673 FILLER_43_72
*1674 FILLER_43_79
*1675 FILLER_43_91
*1676 FILLER_43_99
*1677 FILLER_44_102
*1678 FILLER_44_112
*1679 FILLER_44_118
*1680 FILLER_44_126
*1681 FILLER_44_138
*1682 FILLER_44_14
*1683 FILLER_44_141
*1684 FILLER_44_146
*1685 FILLER_44_158
*1686 FILLER_44_170
*1687 FILLER_44_182
*1688 FILLER_44_194
*1689 FILLER_44_197
*1690 FILLER_44_209
*1691 FILLER_44_221
*1692 FILLER_44_233
*1693 FILLER_44_24
*1694 FILLER_44_245
*1695 FILLER_44_251
*1696 FILLER_44_253
*1697 FILLER_44_265
*1698 FILLER_44_277
*1699 FILLER_44_289
*1700 FILLER_44_29
*1701 FILLER_44_297
*1702 FILLER_44_3
*1703 FILLER_44_40
*1704 FILLER_44_44
*1705 FILLER_44_62
*1706 FILLER_44_75
*1707 FILLER_44_82
*1708 FILLER_44_85
*1709 FILLER_44_96
*1710 FILLER_45_101
*1711 FILLER_45_110
*1712 FILLER_45_113
*1713 FILLER_45_120
*1714 FILLER_45_128
*1715 FILLER_45_137
*1716 FILLER_45_14
*1717 FILLER_45_149
*1718 FILLER_45_161
*1719 FILLER_45_167