*SPEF "ieee 1481-1999"
*DESIGN "nikor_clock"
*DATE "11:11:11 Fri 11 11, 1111"
*VENDOR "OpenRCX"
*PROGRAM "Parallel Extraction"
*VERSION "1.0"
*DESIGN_FLOW "NAME_SCOPE LOCAL" "PIN_CAP NONE"
*DIVIDER /
*DELIMITER :
*BUS_DELIMITER []
*T_UNIT 1 NS
*C_UNIT 1 PF
*R_UNIT 1 OHM
*L_UNIT 1 HENRY

*NAME_MAP
*1 io_in[0]
*2 io_in[1]
*3 io_in[2]
*4 io_in[3]
*5 io_in[4]
*6 io_in[5]
*7 io_in[6]
*8 io_in[7]
*9 io_out[0]
*10 io_out[1]
*11 io_out[2]
*12 net2
*13 net3
*14 net4
*15 net5
*16 net6
*19 _0000_
*20 _0001_
*21 _0002_
*22 _0003_
*23 _0004_
*24 _0005_
*25 _0006_
*26 _0007_
*27 _0008_
*28 _0009_
*29 _0010_
*30 _0011_
*31 _0012_
*32 _0013_
*33 _0014_
*34 _0015_
*35 _0016_
*36 _0017_
*37 _0018_
*38 _0019_
*39 _0020_
*40 _0021_
*41 _0022_
*42 _0023_
*43 _0024_
*44 _0025_
*45 _0026_
*46 _0027_
*47 _0028_
*48 _0029_
*49 _0030_
*50 _0031_
*51 _0032_
*52 _0033_
*53 _0034_
*54 _0035_
*55 _0036_
*56 _0037_
*57 _0038_
*58 _0039_
*59 _0040_
*60 _0041_
*61 _0042_
*62 _0043_
*63 _0044_
*64 _0045_
*65 _0046_
*66 _0047_
*67 _0048_
*68 _0049_
*69 _0050_
*70 _0051_
*71 _0052_
*72 _0053_
*73 _0054_
*74 _0055_
*75 _0056_
*76 _0057_
*77 _0058_
*78 _0059_
*79 _0060_
*80 _0061_
*81 _0062_
*82 _0063_
*83 _0064_
*84 _0065_
*85 _0066_
*86 _0067_
*87 _0068_
*88 _0069_
*89 _0070_
*90 _0071_
*91 _0072_
*92 _0073_
*93 _0074_
*94 _0075_
*95 _0076_
*96 _0077_
*97 _0078_
*98 _0079_
*99 _0080_
*100 _0081_
*101 _0082_
*102 _0083_
*103 _0084_
*104 _0085_
*105 _0086_
*106 _0087_
*107 _0088_
*108 _0089_
*109 _0090_
*110 _0091_
*111 _0092_
*112 _0093_
*113 _0094_
*114 _0095_
*115 _0096_
*116 _0097_
*117 _0098_
*118 _0099_
*119 _0100_
*120 _0101_
*121 _0102_
*122 _0103_
*123 _0104_
*124 _0105_
*125 _0106_
*126 _0107_
*127 _0108_
*128 _0109_
*129 _0110_
*130 _0111_
*131 _0112_
*132 _0113_
*133 _0114_
*134 _0115_
*135 _0116_
*136 _0117_
*137 _0118_
*138 _0119_
*139 _0120_
*140 _0121_
*141 _0122_
*142 _0123_
*143 _0124_
*144 _0125_
*145 _0126_
*146 _0127_
*147 _0128_
*148 _0129_
*149 _0130_
*150 _0131_
*151 _0132_
*152 _0133_
*153 _0134_
*154 _0135_
*155 _0136_
*156 _0137_
*157 _0138_
*158 _0139_
*159 _0140_
*160 _0141_
*161 _0142_
*162 _0143_
*163 _0144_
*164 _0145_
*165 _0146_
*166 _0147_
*167 _0148_
*168 _0149_
*169 _0150_
*170 _0151_
*171 _0152_
*172 _0153_
*173 _0154_
*174 _0155_
*175 _0156_
*176 _0157_
*177 _0158_
*178 _0159_
*179 _0160_
*180 _0161_
*181 _0162_
*182 _0163_
*183 _0164_
*184 _0165_
*185 _0166_
*186 _0167_
*187 _0168_
*188 _0169_
*189 _0170_
*190 _0171_
*191 _0172_
*192 _0173_
*193 _0174_
*194 _0175_
*195 _0176_
*196 _0177_
*197 _0178_
*198 _0179_
*199 _0180_
*200 _0181_
*201 _0182_
*202 _0183_
*203 _0184_
*204 _0185_
*205 _0186_
*206 _0187_
*207 _0188_
*208 _0189_
*209 _0190_
*210 _0191_
*211 _0192_
*212 _0193_
*213 _0194_
*214 _0195_
*215 _0196_
*216 _0197_
*217 _0198_
*218 _0199_
*219 _0200_
*220 _0201_
*221 _0202_
*222 _0203_
*223 _0204_
*224 _0205_
*225 _0206_
*226 _0207_
*227 _0208_
*228 _0209_
*229 _0210_
*230 _0211_
*231 _0212_
*232 _0213_
*233 _0214_
*234 _0215_
*235 _0216_
*236 _0217_
*237 _0218_
*238 _0219_
*239 _0220_
*240 _0221_
*241 _0222_
*242 _0223_
*243 _0224_
*244 _0225_
*245 _0226_
*246 _0227_
*247 _0228_
*248 _0229_
*249 _0230_
*250 _0231_
*251 _0232_
*252 _0233_
*253 _0234_
*254 _0235_
*255 _0236_
*256 _0237_
*257 _0238_
*258 _0239_
*259 _0240_
*260 _0241_
*261 _0242_
*262 _0243_
*263 _0244_
*264 _0245_
*265 _0246_
*266 _0247_
*267 _0248_
*268 _0249_
*269 _0250_
*270 _0251_
*271 _0252_
*272 _0253_
*273 _0254_
*274 _0255_
*275 _0256_
*276 _0257_
*277 _0258_
*278 _0259_
*279 _0260_
*280 _0261_
*281 _0262_
*282 _0263_
*283 _0264_
*284 _0265_
*285 _0266_
*286 _0267_
*287 _0268_
*288 _0269_
*289 _0270_
*290 _0271_
*291 _0272_
*292 _0273_
*293 _0274_
*294 _0275_
*295 _0276_
*296 _0277_
*297 _0278_
*298 _0279_
*299 _0280_
*300 _0281_
*301 _0282_
*302 _0283_
*303 _0284_
*304 _0285_
*305 _0286_
*306 _0287_
*307 _0288_
*308 _0289_
*309 _0290_
*310 _0291_
*311 _0292_
*312 _0293_
*313 _0294_
*314 _0295_
*315 _0296_
*316 _0297_
*317 _0298_
*318 _0299_
*319 _0300_
*320 _0301_
*321 _0302_
*322 _0303_
*323 _0304_
*324 _0305_
*325 _0306_
*326 _0307_
*327 _0308_
*328 _0309_
*329 _0310_
*330 _0311_
*331 _0312_
*332 _0313_
*333 _0314_
*334 _0315_
*335 _0316_
*336 _0317_
*337 _0318_
*338 _0319_
*339 _0320_
*340 _0321_
*341 _0322_
*342 _0323_
*343 _0324_
*344 _0325_
*345 _0326_
*346 _0327_
*347 _0328_
*348 _0329_
*349 _0330_
*350 _0331_
*351 _0332_
*352 _0333_
*353 _0334_
*354 _0335_
*355 _0336_
*356 _0337_
*357 _0338_
*358 _0339_
*359 _0340_
*360 _0341_
*361 _0342_
*362 _0343_
*363 _0344_
*364 _0345_
*365 _0346_
*366 _0347_
*367 _0348_
*368 _0349_
*369 _0350_
*370 _0351_
*371 _0352_
*372 _0353_
*373 _0354_
*374 _0355_
*375 _0356_
*376 _0357_
*377 _0358_
*378 _0359_
*379 _0360_
*380 _0361_
*381 _0362_
*382 _0363_
*383 _0364_
*384 _0365_
*385 _0366_
*386 _0367_
*387 _0368_
*388 _0369_
*389 _0370_
*390 _0371_
*391 _0372_
*392 _0373_
*393 _0374_
*394 _0375_
*395 _0376_
*396 _0377_
*397 _0378_
*398 _0379_
*399 _0380_
*400 _0381_
*401 _0382_
*402 _0383_
*403 _0384_
*404 _0385_
*405 _0386_
*406 _0387_
*407 _0388_
*408 _0389_
*409 _0390_
*410 _0391_
*411 _0392_
*412 _0393_
*413 _0394_
*414 _0395_
*415 _0396_
*416 _0397_
*417 _0398_
*418 _0399_
*419 _0400_
*420 _0401_
*421 _0402_
*422 _0403_
*423 _0404_
*424 _0405_
*425 _0406_
*426 _0407_
*427 _0408_
*428 _0409_
*429 _0410_
*430 _0411_
*431 _0412_
*432 _0413_
*433 _0414_
*434 _0415_
*435 _0416_
*436 _0417_
*437 _0418_
*438 _0419_
*439 _0420_
*440 _0421_
*441 _0422_
*442 _0423_
*443 _0424_
*444 _0425_
*445 _0426_
*446 _0427_
*447 _0428_
*448 _0429_
*449 _0430_
*450 _0431_
*451 _0432_
*452 _0433_
*453 _0434_
*454 _0435_
*455 _0436_
*456 _0437_
*457 _0438_
*458 _0439_
*459 _0440_
*460 _0441_
*461 _0442_
*462 _0443_
*463 _0444_
*464 _0445_
*465 _0446_
*466 _0447_
*467 _0448_
*468 _0449_
*469 _0450_
*470 _0451_
*471 _0452_
*472 _0453_
*473 _0454_
*474 _0455_
*475 _0456_
*476 _0457_
*477 _0458_
*478 _0459_
*479 _0460_
*480 _0461_
*481 _0462_
*482 _0463_
*483 _0464_
*484 _0465_
*485 _0466_
*486 _0467_
*487 _0468_
*488 _0469_
*489 _0470_
*490 _0471_
*491 _0472_
*492 _0473_
*493 _0474_
*494 _0475_
*495 _0476_
*496 _0477_
*497 _0478_
*498 _0479_
*499 _0480_
*500 _0481_
*501 _0482_
*502 _0483_
*503 _0484_
*504 _0485_
*505 _0486_
*506 _0487_
*507 _0488_
*508 _0489_
*509 _0490_
*510 _0491_
*511 _0492_
*512 _0493_
*513 _0494_
*514 _0495_
*515 _0496_
*516 _0497_
*517 _0498_
*518 _0499_
*519 _0500_
*520 _0501_
*521 _0502_
*522 _0503_
*523 _0504_
*524 _0505_
*525 _0506_
*526 _0507_
*527 _0508_
*528 _0509_
*529 _0510_
*530 _0511_
*531 _0512_
*532 _0513_
*533 _0514_
*534 _0515_
*535 _0516_
*536 _0517_
*537 _0518_
*538 _0519_
*539 _0520_
*540 _0521_
*541 _0522_
*542 _0523_
*543 _0524_
*544 _0525_
*545 _0526_
*546 _0527_
*547 _0528_
*548 _0529_
*549 _0530_
*550 _0531_
*551 _0532_
*552 _0533_
*553 _0534_
*554 _0535_
*555 _0536_
*556 _0537_
*557 _0538_
*558 _0539_
*559 _0540_
*560 _0541_
*561 _0542_
*562 _0543_
*563 _0544_
*564 _0545_
*565 _0546_
*566 _0547_
*567 _0548_
*568 _0549_
*569 _0550_
*570 _0551_
*571 _0552_
*572 _0553_
*573 _0554_
*574 _0555_
*575 _0556_
*576 _0557_
*577 _0558_
*578 _0559_
*579 _0560_
*580 _0561_
*581 _0562_
*582 _0563_
*583 _0564_
*584 _0565_
*585 _0566_
*586 _0567_
*587 _0568_
*588 _0569_
*589 _0570_
*590 _0571_
*591 _0572_
*592 _0573_
*593 _0574_
*594 _0575_
*595 _0576_
*596 _0577_
*597 _0578_
*598 _0579_
*599 _0580_
*600 _0581_
*601 _0582_
*602 _0583_
*603 _0584_
*604 _0585_
*605 _0586_
*606 _0587_
*607 _0588_
*608 _0589_
*609 _0590_
*610 _0591_
*611 _0592_
*612 _0593_
*613 _0594_
*614 _0595_
*615 _0596_
*616 _0597_
*617 _0598_
*618 _0599_
*619 _0600_
*620 _0601_
*621 _0602_
*622 _0603_
*623 _0604_
*624 _0605_
*625 _0606_
*626 _0607_
*627 _0608_
*628 _0609_
*629 _0610_
*630 _0611_
*631 _0612_
*632 _0613_
*633 _0614_
*634 _0615_
*635 _0616_
*636 _0617_
*637 _0618_
*638 _0619_
*639 _0620_
*640 _0621_
*641 _0622_
*642 _0623_
*643 _0624_
*644 _0625_
*645 _0626_
*646 _0627_
*647 _0628_
*648 _0629_
*649 _0630_
*650 _0631_
*651 _0632_
*652 _0633_
*653 _0634_
*654 _0635_
*655 _0636_
*656 _0637_
*657 _0638_
*658 _0639_
*659 _0640_
*660 _0641_
*661 _0642_
*662 _0643_
*663 _0644_
*664 _0645_
*665 _0646_
*666 _0647_
*667 _0648_
*668 _0649_
*669 _0650_
*670 _0651_
*671 _0652_
*672 _0653_
*673 _0654_
*674 _0655_
*675 _0656_
*676 _0657_
*677 _0658_
*678 _0659_
*679 _0660_
*680 _0661_
*681 _0662_
*682 _0663_
*683 _0664_
*684 _0665_
*685 _0666_
*686 _0667_
*687 _0668_
*688 _0669_
*689 _0670_
*690 _0671_
*691 _0672_
*692 _0673_
*693 _0674_
*694 _0675_
*695 _0676_
*696 _0677_
*697 _0678_
*698 _0679_
*699 _0680_
*700 _0681_
*701 _0682_
*702 _0683_
*703 _0684_
*704 _0685_
*705 _0686_
*706 _0687_
*707 _0688_
*708 _0689_
*709 _0690_
*710 _0691_
*711 _0692_
*712 _0693_
*713 _0694_
*714 _0695_
*715 _0696_
*716 _0697_
*717 _0698_
*718 _0699_
*719 _0700_
*720 _0701_
*721 _0702_
*722 _0703_
*723 _0704_
*724 _0705_
*725 _0706_
*726 _0707_
*727 _0708_
*728 _0709_
*729 _0710_
*730 _0711_
*731 _0712_
*732 _0713_
*733 _0714_
*734 _0715_
*735 _0716_
*736 _0717_
*737 _0718_
*738 _0719_
*739 _0720_
*740 _0721_
*741 _0722_
*742 _0723_
*743 _0724_
*744 _0725_
*745 _0726_
*746 _0727_
*747 _0728_
*748 _0729_
*749 _0730_
*750 _0731_
*751 _0732_
*752 _0733_
*753 _0734_
*754 _0735_
*755 _0736_
*756 _0737_
*757 _0738_
*758 _0739_
*759 _0740_
*760 _0741_
*761 _0742_
*762 _0743_
*763 _0744_
*764 _0745_
*765 _0746_
*766 _0747_
*767 _0748_
*768 _0749_
*769 _0750_
*770 _0751_
*771 _0752_
*772 _0753_
*773 _0754_
*774 _0755_
*775 _0756_
*776 _0757_
*777 _0758_
*778 _0759_
*779 _0760_
*780 _0761_
*781 _0762_
*782 _0763_
*783 _0764_
*784 _0765_
*785 _0766_
*786 _0767_
*787 _0768_
*788 _0769_
*789 _0770_
*790 _0771_
*791 _0772_
*792 _0773_
*793 _0774_
*794 _0775_
*795 _0776_
*796 _0777_
*797 _0778_
*798 _0779_
*799 _0780_
*800 _0781_
*801 _0782_
*802 _0783_
*803 _0784_
*804 _0785_
*805 _0786_
*806 _0787_
*807 _0788_
*808 _0789_
*809 _0790_
*810 _0791_
*811 _0792_
*812 _0793_
*813 _0794_
*814 _0795_
*815 _0796_
*816 _0797_
*817 _0798_
*818 _0799_
*819 _0800_
*820 _0801_
*821 _0802_
*822 _0803_
*823 _0804_
*824 _0805_
*825 _0806_
*826 _0807_
*827 _0808_
*828 _0809_
*829 _0810_
*830 _0811_
*831 _0812_
*832 _0813_
*833 _0814_
*834 _0815_
*835 _0816_
*836 _0817_
*837 _0818_
*838 _0819_
*839 _0820_
*840 _0821_
*841 _0822_
*842 _0823_
*843 _0824_
*844 _0825_
*845 _0826_
*846 _0827_
*847 _0828_
*848 _0829_
*849 _0830_
*850 _0831_
*851 _0832_
*852 _0833_
*853 _0834_
*854 _0835_
*855 _0836_
*856 _0837_
*857 _0838_
*858 _0839_
*859 _0840_
*860 _0841_
*861 _0842_
*862 _0843_
*863 _0844_
*864 _0845_
*865 _0846_
*866 _0847_
*867 _0848_
*868 _0849_
*869 _0850_
*870 _0851_
*871 _0852_
*872 _0853_
*873 _0854_
*874 _0855_
*875 _0856_
*876 _0857_
*877 _0858_
*878 _0859_
*879 _0860_
*880 _0861_
*881 _0862_
*882 _0863_
*883 _0864_
*884 _0865_
*885 _0866_
*886 _0867_
*887 _0868_
*888 _0869_
*889 _0870_
*890 _0871_
*891 _0872_
*892 _0873_
*893 _0874_
*894 _0875_
*895 _0876_
*896 _0877_
*897 _0878_
*898 _0879_
*899 _0880_
*900 _0881_
*901 _0882_
*902 _0883_
*903 _0884_
*904 _0885_
*905 _0886_
*906 _0887_
*907 _0888_
*908 _0889_
*909 _0890_
*910 _0891_
*911 _0892_
*912 _0893_
*913 _0894_
*914 _0895_
*915 _0896_
*916 _0897_
*917 _0898_
*918 _0899_
*919 _0900_
*920 _0901_
*921 _0902_
*922 _0903_
*923 _0904_
*924 _0905_
*925 _0906_
*926 _0907_
*927 _0908_
*928 _0909_
*929 _0910_
*930 _0911_
*931 _0912_
*932 _0913_
*933 _0914_
*934 _0915_
*935 _0916_
*936 _0917_
*937 _0918_
*938 _0919_
*939 _0920_
*940 _0921_
*941 _0922_
*942 _0923_
*943 _0924_
*944 _0925_
*945 _0926_
*946 _0927_
*947 _0928_
*948 _0929_
*949 _0930_
*950 _0931_
*951 _0932_
*952 _0933_
*953 _0934_
*954 _0935_
*955 _0936_
*956 _0937_
*957 _0938_
*958 _0939_
*959 _0940_
*960 _0941_
*961 _0942_
*962 _0943_
*963 _0944_
*964 _0945_
*965 _0946_
*966 _0947_
*967 _0948_
*968 _0949_
*969 _0950_
*970 _0951_
*971 _0952_
*972 _0953_
*973 _0954_
*974 _0955_
*975 _0956_
*976 _0957_
*977 _0958_
*978 _0959_
*979 _0960_
*980 _0961_
*981 _0962_
*982 _0963_
*983 _0964_
*984 _0965_
*985 _0966_
*986 _0967_
*987 _0968_
*988 _0969_
*989 _0970_
*990 _0971_
*991 _0972_
*992 _0973_
*993 _0974_
*994 _0975_
*995 _0976_
*996 _0977_
*997 _0978_
*998 _0979_
*999 _0980_
*1000 _0981_
*1001 _0982_
*1002 _0983_
*1003 _0984_
*1004 _0985_
*1005 _0986_
*1006 _0987_
*1007 _0988_
*1008 _0989_
*1009 _0990_
*1010 _0991_
*1011 _0992_
*1012 _0993_
*1013 _0994_
*1014 _0995_
*1015 _0996_
*1016 _0997_
*1017 _0998_
*1018 _0999_
*1019 _1000_
*1020 _1001_
*1021 _1002_
*1022 _1003_
*1023 _1004_
*1024 _1005_
*1025 _1006_
*1026 _1007_
*1027 _1008_
*1028 _1009_
*1029 _1010_
*1030 _1011_
*1031 _1012_
*1032 _1013_
*1033 _1014_
*1034 _1015_
*1035 _1016_
*1036 _1017_
*1037 _1018_
*1038 _1019_
*1039 _1020_
*1040 _1021_
*1041 _1022_
*1042 _1023_
*1043 _1024_
*1044 _1025_
*1045 _1026_
*1046 _1027_
*1047 _1028_
*1048 _1029_
*1049 _1030_
*1050 _1031_
*1051 _1032_
*1052 _1033_
*1053 _1034_
*1054 _1035_
*1055 _1036_
*1056 _1037_
*1057 _1038_
*1058 _1039_
*1059 _1040_
*1060 _1041_
*1061 _1042_
*1062 _1043_
*1063 _1044_
*1064 _1045_
*1065 _1046_
*1066 _1047_
*1067 _1048_
*1068 _1049_
*1069 _1050_
*1070 _1051_
*1071 _1052_
*1072 _1053_
*1073 _1054_
*1074 _1055_
*1075 _1056_
*1076 _1057_
*1077 _1058_
*1078 _1059_
*1079 _1060_
*1080 _1061_
*1081 _1062_
*1082 _1063_
*1083 _1064_
*1084 _1065_
*1085 _1066_
*1086 _1067_
*1087 _1068_
*1088 _1069_
*1089 _1070_
*1090 _1071_
*1091 _1072_
*1092 _1073_
*1093 _1074_
*1094 _1075_
*1095 _1076_
*1096 _1077_
*1097 _1078_
*1098 _1079_
*1099 _1080_
*1100 _1081_
*1101 _1082_
*1102 _1083_
*1103 _1084_
*1104 _1085_
*1105 _1086_
*1106 _1087_
*1107 _1088_
*1108 _1089_
*1109 _1090_
*1110 _1091_
*1111 _1092_
*1112 _1093_
*1113 _1094_
*1114 _1095_
*1115 _1096_
*1116 _1097_
*1117 _1098_
*1118 _1099_
*1119 _1100_
*1120 _1101_
*1121 _1102_
*1122 _1103_
*1123 _1104_
*1124 _1105_
*1125 _1106_
*1126 _1107_
*1127 _1108_
*1128 _1109_
*1129 _1110_
*1130 _1111_
*1131 _1112_
*1132 _1113_
*1133 _1114_
*1134 _1115_
*1135 _1116_
*1136 _1117_
*1137 _1118_
*1138 _1119_
*1139 _1120_
*1140 _1121_
*1141 _1122_
*1142 _1123_
*1143 _1124_
*1144 _1125_
*1145 _1126_
*1146 _1127_
*1147 _1128_
*1148 _1129_
*1149 _1130_
*1150 _1131_
*1151 _1132_
*1152 _1133_
*1153 _1134_
*1154 _1135_
*1155 _1136_
*1156 _1137_
*1157 _1138_
*1158 _1139_
*1159 _1140_
*1160 _1141_
*1161 _1142_
*1162 _1143_
*1163 _1144_
*1164 _1145_
*1165 _1146_
*1166 _1147_
*1167 _1148_
*1168 _1149_
*1169 _1150_
*1170 _1151_
*1171 _1152_
*1172 _1153_
*1173 _1154_
*1174 _1155_
*1175 _1156_
*1176 _1157_
*1177 _1158_
*1178 _1159_
*1179 _1160_
*1180 _1161_
*1181 _1162_
*1182 _1163_
*1183 _1164_
*1184 _1165_
*1185 _1166_
*1186 _1167_
*1187 _1168_
*1188 _1169_
*1189 _1170_
*1190 _1171_
*1191 _1172_
*1192 _1173_
*1193 _1174_
*1194 _1175_
*1195 _1176_
*1196 _1177_
*1197 _1178_
*1198 _1179_
*1199 _1180_
*1200 _1181_
*1201 _1182_
*1202 _1183_
*1203 _1184_
*1204 _1185_
*1205 _1186_
*1206 _1187_
*1207 _1188_
*1208 _1189_
*1209 _1190_
*1210 _1191_
*1211 _1192_
*1212 _1193_
*1213 _1194_
*1214 _1195_
*1215 _1196_
*1216 _1197_
*1217 _1198_
*1218 _1199_
*1219 _1200_
*1220 _1201_
*1221 _1202_
*1222 _1203_
*1223 _1204_
*1224 _1205_
*1225 _1206_
*1226 _1207_
*1227 _1208_
*1228 _1209_
*1229 _1210_
*1230 _1211_
*1231 _1212_
*1232 _1213_
*1233 _1214_
*1234 _1215_
*1235 _1216_
*1236 _1217_
*1237 _1218_
*1238 _1219_
*1239 _1220_
*1240 _1221_
*1241 clknet_0_io_in[0]
*1242 clknet_2_0__leaf_io_in[0]
*1243 clknet_2_1__leaf_io_in[0]
*1244 clknet_2_2__leaf_io_in[0]
*1245 clknet_2_3__leaf_io_in[0]
*1246 cnt\[10\]
*1247 cnt\[11\]
*1248 cnt\[12\]
*1249 cnt\[13\]
*1250 cnt\[14\]
*1251 cnt\[15\]
*1252 cnt\[16\]
*1253 cnt\[17\]
*1254 cnt\[18\]
*1255 cnt\[19\]
*1256 cnt\[20\]
*1257 cnt\[21\]
*1258 cnt\[22\]
*1259 cnt\[23\]
*1260 cnt\[24\]
*1261 cnt\[25\]
*1262 cnt\[26\]
*1263 cnt\[27\]
*1264 cnt\[28\]
*1265 cnt\[29\]
*1266 cnt\[30\]
*1267 cnt\[31\]
*1268 cnt\[3\]
*1269 cnt\[4\]
*1270 cnt\[5\]
*1271 cnt\[6\]
*1272 cnt\[7\]
*1273 cnt\[8\]
*1274 cnt\[9\]
*1275 db\.cnt\[0\]
*1276 db\.cnt\[1\]
*1277 db\.cnt\[2\]
*1278 db\.digit\[0\]
*1279 db\.digit\[1\]
*1280 db\.digit\[2\]
*1281 db\.digit\[3\]
*1282 db\.mbit
*1283 db\.srclk
*1284 net1
*1285 rclk
*1286 FILLER_0_106
*1287 FILLER_0_113
*1288 FILLER_0_119
*1289 FILLER_0_12
*1290 FILLER_0_127
*1291 FILLER_0_134
*1292 FILLER_0_141
*1293 FILLER_0_150
*1294 FILLER_0_158
*1295 FILLER_0_165
*1296 FILLER_0_169
*1297 FILLER_0_174
*1298 FILLER_0_178
*1299 FILLER_0_186
*1300 FILLER_0_190
*1301 FILLER_0_194
*1302 FILLER_0_197
*1303 FILLER_0_208
*1304 FILLER_0_21
*1305 FILLER_0_222
*1306 FILLER_0_225
*1307 FILLER_0_230
*1308 FILLER_0_237
*1309 FILLER_0_249
*1310 FILLER_0_253
*1311 FILLER_0_264
*1312 FILLER_0_27
*1313 FILLER_0_276
*1314 FILLER_0_281
*1315 FILLER_0_29
*1316 FILLER_0_293
*1317 FILLER_0_3
*1318 FILLER_0_38
*1319 FILLER_0_46
*1320 FILLER_0_53
*1321 FILLER_0_57
*1322 FILLER_0_63
*1323 FILLER_0_67
*1324 FILLER_0_7
*1325 FILLER_0_75
*1326 FILLER_0_82
*1327 FILLER_0_85
*1328 FILLER_0_91
*1329 FILLER_0_97
*1330 FILLER_10_10
*1331 FILLER_10_105
*1332 FILLER_10_109
*1333 FILLER_10_114
*1334 FILLER_10_120
*1335 FILLER_10_127
*1336 FILLER_10_138
*1337 FILLER_10_141
*1338 FILLER_10_146
*1339 FILLER_10_157
*1340 FILLER_10_166
*1341 FILLER_10_17
*1342 FILLER_10_172
*1343 FILLER_10_182
*1344 FILLER_10_192
*1345 FILLER_10_197
*1346 FILLER_10_208
*1347 FILLER_10_216
*1348 FILLER_10_220
*1349 FILLER_10_227
*1350 FILLER_10_240
*1351 FILLER_10_247
*1352 FILLER_10_251
*1353 FILLER_10_253
*1354 FILLER_10_26
*1355 FILLER_10_265
*1356 FILLER_10_277
*1357 FILLER_10_289
*1358 FILLER_10_29
*1359 FILLER_10_297
*1360 FILLER_10_3
*1361 FILLER_10_34
*1362 FILLER_10_50
*1363 FILLER_10_58
*1364 FILLER_10_70
*1365 FILLER_10_82
*1366 FILLER_10_85
*1367 FILLER_10_95
*1368 FILLER_11_110
*1369 FILLER_11_113
*1370 FILLER_11_12
*1371 FILLER_11_127
*1372 FILLER_11_138
*1373 FILLER_11_145
*1374 FILLER_11_149
*1375 FILLER_11_158
*1376 FILLER_11_166
*1377 FILLER_11_169
*1378 FILLER_11_175
*1379 FILLER_11_18
*1380 FILLER_11_182
*1381 FILLER_11_194
*1382 FILLER_11_202
*1383 FILLER_11_209
*1384 FILLER_11_215
*1385 FILLER_11_221
*1386 FILLER_11_225
*1387 FILLER_11_232
*1388 FILLER_11_239
*1389 FILLER_11_24
*1390 FILLER_11_259
*1391 FILLER_11_270
*1392 FILLER_11_278
*1393 FILLER_11_281
*1394 FILLER_11_293
*1395 FILLER_11_3
*1396 FILLER_11_33
*1397 FILLER_11_42
*1398 FILLER_11_54
*1399 FILLER_11_57
*1400 FILLER_11_72
*1401 FILLER_11_78
*1402 FILLER_11_84
*1403 FILLER_11_92
*1404 FILLER_11_99
*1405 FILLER_12_100
*1406 FILLER_12_114
*1407 FILLER_12_127
*1408 FILLER_12_134
*1409 FILLER_12_14
*1410 FILLER_12_141
*1411 FILLER_12_150
*1412 FILLER_12_154
*1413 FILLER_12_160
*1414 FILLER_12_164
*1415 FILLER_12_174
*1416 FILLER_12_182
*1417 FILLER_12_191
*1418 FILLER_12_195
*1419 FILLER_12_197
*1420 FILLER_12_204
*1421 FILLER_12_213
*1422 FILLER_12_224
*1423 FILLER_12_239
*1424 FILLER_12_248
*1425 FILLER_12_253
*1426 FILLER_12_259
*1427 FILLER_12_26
*1428 FILLER_12_267
*1429 FILLER_12_278
*1430 FILLER_12_286
*1431 FILLER_12_29
*1432 FILLER_12_291
*1433 FILLER_12_3
*1434 FILLER_12_37
*1435 FILLER_12_47
*1436 FILLER_12_59
*1437 FILLER_12_63
*1438 FILLER_12_71
*1439 FILLER_12_82
*1440 FILLER_12_85
*1441 FILLER_12_96
*1442 FILLER_13_105
*1443 FILLER_13_111
*1444 FILLER_13_113
*1445 FILLER_13_12
*1446 FILLER_13_128
*1447 FILLER_13_137
*1448 FILLER_13_145
*1449 FILLER_13_160
*1450 FILLER_13_169
*1451 FILLER_13_175
*1452 FILLER_13_189
*1453 FILLER_13_20
*1454 FILLER_13_200
*1455 FILLER_13_208
*1456 FILLER_13_217
*1457 FILLER_13_223
*1458 FILLER_13_225
*1459 FILLER_13_231
*1460 FILLER_13_237
*1461 FILLER_13_241
*1462 FILLER_13_249
*1463 FILLER_13_256
*1464 FILLER_13_262
*1465 FILLER_13_268
*1466 FILLER_13_278
*1467 FILLER_13_281
*1468 FILLER_13_287
*1469 FILLER_13_294
*1470 FILLER_13_298
*1471 FILLER_13_3
*1472 FILLER_13_32
*1473 FILLER_13_39
*1474 FILLER_13_43
*1475 FILLER_13_47
*1476 FILLER_13_54
*1477 FILLER_13_57
*1478 FILLER_13_73
*1479 FILLER_13_82
*1480 FILLER_13_91
*1481 FILLER_14_106
*1482 FILLER_14_114
*1483 FILLER_14_121
*1484 FILLER_14_138
*1485 FILLER_14_141
*1486 FILLER_14_145
*1487 FILLER_14_153
*1488 FILLER_14_160
*1489 FILLER_14_164
*1490 FILLER_14_170
*1491 FILLER_14_177
*1492 FILLER_14_187
*1493 FILLER_14_194
*1494 FILLER_14_197
*1495 FILLER_14_205
*1496 FILLER_14_211
*1497 FILLER_14_218
*1498 FILLER_14_226
*1499 FILLER_14_238
*1500 FILLER_14_250
*1501 FILLER_14_253
*1502 FILLER_14_26
*1503 FILLER_14_262
*1504 FILLER_14_268
*1505 FILLER_14_274
*1506 FILLER_14_29
*1507 FILLER_14_293
*1508 FILLER_14_3
*1509 FILLER_14_35
*1510 FILLER_14_39
*1511 FILLER_14_46
*1512 FILLER_14_53
*1513 FILLER_14_65
*1514 FILLER_14_73
*1515 FILLER_14_82
*1516 FILLER_14_85
*1517 FILLER_14_9
*1518 FILLER_14_94
*1519 FILLER_15_104
*1520 FILLER_15_11
*1521 FILLER_15_113
*1522 FILLER_15_119
*1523 FILLER_15_127
*1524 FILLER_15_135
*1525 FILLER_15_154
*1526 FILLER_15_166
*1527 FILLER_15_169
*1528 FILLER_15_174
*1529 FILLER_15_178
*1530 FILLER_15_187
*1531 FILLER_15_195
*1532 FILLER_15_201
*1533 FILLER_15_205
*1534 FILLER_15_211
*1535 FILLER_15_218
*1536 FILLER_15_225
*1537 FILLER_15_235
*1538 FILLER_15_242
*1539 FILLER_15_254
*1540 FILLER_15_259
*1541 FILLER_15_269
*1542 FILLER_15_278
*1543 FILLER_15_281
*1544 FILLER_15_286
*1545 FILLER_15_293
*1546 FILLER_15_3
*1547 FILLER_15_31
*1548 FILLER_15_51
*1549 FILLER_15_55
*1550 FILLER_15_57
*1551 FILLER_15_62
*1552 FILLER_15_70
*1553 FILLER_15_78
*1554 FILLER_15_87
*1555 FILLER_15_94
*1556 FILLER_16_100
*1557 FILLER_16_121
*1558 FILLER_16_129
*1559 FILLER_16_138
*1560 FILLER_16_141
*1561 FILLER_16_166
*1562 FILLER_16_174
*1563 FILLER_16_182
*1564 FILLER_16_191
*1565 FILLER_16_195
*1566 FILLER_16_197
*1567 FILLER_16_21
*1568 FILLER_16_212
*1569 FILLER_16_223
*1570 FILLER_16_229
*1571 FILLER_16_237
*1572 FILLER_16_244
*1573 FILLER_16_253
*1574 FILLER_16_258
*1575 FILLER_16_262
*1576 FILLER_16_266
*1577 FILLER_16_27
*1578 FILLER_16_274
*1579 FILLER_16_282
*1580 FILLER_16_29
*1581 FILLER_16_296
*1582 FILLER_16_3
*1583 FILLER_16_35
*1584 FILLER_16_39
*1585 FILLER_16_43
*1586 FILLER_16_54
*1587 FILLER_16_64
*1588 FILLER_16_73
*1589 FILLER_16_80
*1590 FILLER_16_85
*1591 FILLER_16_96
*1592 FILLER_17_104
*1593 FILLER_17_113
*1594 FILLER_17_12
*1595 FILLER_17_120
*1596 FILLER_17_124
*1597 FILLER_17_129
*1598 FILLER_17_138
*1599 FILLER_17_146
*1600 FILLER_17_155
*1601 FILLER_17_166
*1602 FILLER_17_169
*1603 FILLER_17_178
*1604 FILLER_17_186
*1605 FILLER_17_193
*1606 FILLER_17_200
*1607 FILLER_17_213
*1608 FILLER_17_217
*1609 FILLER_17_222
*1610 FILLER_17_225
*1611 FILLER_17_232
*1612 FILLER_17_242
*1613 FILLER_17_255
*1614 FILLER_17_266
*1615 FILLER_17_277
*1616 FILLER_17_281
*1617 FILLER_17_294
*1618 FILLER_17_298
*1619 FILLER_17_3
*1620 FILLER_17_36
*1621 FILLER_17_48
*1622 FILLER_17_57
*1623 FILLER_17_66
*1624 FILLER_17_75
*1625 FILLER_17_86
*1626 FILLER_17_90
*1627 FILLER_17_94
*1628 FILLER_18_106
*1629 FILLER_18_117
*1630 FILLER_18_125
*1631 FILLER_18_133
*1632 FILLER_18_138
*1633 FILLER_18_141
*1634 FILLER_18_166
*1635 FILLER_18_178
*1636 FILLER_18_182
*1637 FILLER_18_192
*1638 FILLER_18_197
*1639 FILLER_18_20
*1640 FILLER_18_201
*1641 FILLER_18_208
*1642 FILLER_18_217
*1643 FILLER_18_225
*1644 FILLER_18_236
*1645 FILLER_18_246
*1646 FILLER_18_253
*1647 FILLER_18_260
*1648 FILLER_18_272
*1649 FILLER_18_284
*1650 FILLER_18_29
*1651 FILLER_18_296
*1652 FILLER_18_3
*1653 FILLER_18_35
*1654 FILLER_18_47
*1655 FILLER_18_55
*1656 FILLER_18_63
*1657 FILLER_18_67
*1658 FILLER_18_72
*1659 FILLER_18_79
*1660 FILLER_18_8
*1661 FILLER_18_83
*1662 FILLER_18_85
*1663 FILLER_18_90
*1664 FILLER_18_97
*1665 FILLER_19_109
*1666 FILLER_19_113
*1667 FILLER_19_126
*1668 FILLER_19_13
*1669 FILLER_19_132
*1670 FILLER_19_141
*1671 FILLER_19_149
*1672 FILLER_19_155
*1673 FILLER_19_167
*1674 FILLER_19_169
*1675 FILLER_19_173
*1676 FILLER_19_180
*1677 FILLER_19_197
*1678 FILLER_19_201
*1679 FILLER_19_205
*1680 FILLER_19_213
*1681 FILLER_19_221
*1682 FILLER_19_225
*1683 FILLER_19_236
*1684 FILLER_19_248
*1685 FILLER_19_25
*1686 FILLER_19_252
*1687 FILLER_19_264
*1688 FILLER_19_276
*1689 FILLER_19_281
*1690 FILLER_19_287
*1691 FILLER_19_297
*1692 FILLER_19_3
*1693 FILLER_19_41
*1694 FILLER_19_49
*1695 FILLER_19_55
*1696 FILLER_19_57
*1697 FILLER_19_72
*1698 FILLER_19_80
*1699 FILLER_19_90
*1700 FILLER_19_94
*1701 FILLER_19_98
*1702 FILLER_1_104
*1703 FILLER_1_110
*1704 FILLER_1_113
*1705 FILLER_1_12
*1706 FILLER_1_128
*1707 FILLER_1_135
*1708 FILLER_1_147
*1709 FILLER_1_154
*1710 FILLER_1_158
*1711 FILLER_1_166
*1712 FILLER_1_169
*1713 FILLER_1_177
*1714 FILLER_1_181
*1715 FILLER_1_191
*1716 FILLER_1_195
*1717 FILLER_1_206
*1718 FILLER_1_214
*1719 FILLER_1_22
*1720 FILLER_1_222
*1721 FILLER_1_225
*1722 FILLER_1_240
*1723 FILLER_1_257
*1724 FILLER_1_268
*1725 FILLER_1_276
*1726 FILLER_1_281
*1727 FILLER_1_29
*1728 FILLER_1_293
*1729 FILLER_1_3
*1730 FILLER_1_41
*1731 FILLER_1_54
*1732 FILLER_1_57
*1733 FILLER_1_66
*1734 FILLER_1_79
*1735 FILLER_1_86
*1736 FILLER_1_90
*1737 FILLER_1_98
*1738 FILLER_20_103
*1739 FILLER_20_112
*1740 FILLER_20_116
*1741 FILLER_20_12
*1742 FILLER_20_133
*1743 FILLER_20_139
*1744 FILLER_20_141
*1745 FILLER_20_160
*1746 FILLER_20_168
*1747 FILLER_20_182
*1748 FILLER_20_193
*1749 FILLER_20_197
*1750 FILLER_20_202
*1751 FILLER_20_215
*1752 FILLER_20_224
*1753 FILLER_20_231
*1754 FILLER_20_242
*1755 FILLER_20_25
*1756 FILLER_20_250
*1757 FILLER_20_253
*1758 FILLER_20_257
*1759 FILLER_20_261
*1760 FILLER_20_267
*1761 FILLER_20_275
*1762 FILLER_20_284
*1763 FILLER_20_29
*1764 FILLER_20_297
*1765 FILLER_20_3
*1766 FILLER_20_38
*1767 FILLER_20_51
*1768 FILLER_20_55
*1769 FILLER_20_60
*1770 FILLER_20_80
*1771 FILLER_20_85
*1772 FILLER_21_104
*1773 FILLER_21_113
*1774 FILLER_21_132
*1775 FILLER_21_144
*1776 FILLER_21_16
*1777 FILLER_21_166
*1778 FILLER_21_169
*1779 FILLER_21_175
*1780 FILLER_21_183
*1781 FILLER_21_189
*1782 FILLER_21_197
*1783 FILLER_21_204
*1784 FILLER_21_213
*1785 FILLER_21_217
*1786 FILLER_21_22
*1787 FILLER_21_222
*1788 FILLER_21_225
*1789 FILLER_21_231
*1790 FILLER_21_244
*1791 FILLER_21_248
*1792 FILLER_21_256
*1793 FILLER_21_267
*1794 FILLER_21_275
*1795 FILLER_21_279
*1796 FILLER_21_281
*1797 FILLER_21_290
*1798 FILLER_21_298
*1799 FILLER_21_3
*1800 FILLER_21_32
*1801 FILLER_21_47
*1802 FILLER_21_54
*1803 FILLER_21_57
*1804 FILLER_21_66
*1805 FILLER_21_8
*1806 FILLER_21_88
*1807 FILLER_21_96
*1808 FILLER_22_121
*1809 FILLER_22_127
*1810 FILLER_22_131
*1811 FILLER_22_138
*1812 FILLER_22_141
*1813 FILLER_22_154
*1814 FILLER_22_162
*1815 FILLER_22_176
*1816 FILLER_22_186
*1817 FILLER_22_193
*1818 FILLER_22_197
*1819 FILLER_22_21
*1820 FILLER_22_210
*1821 FILLER_22_226
*1822 FILLER_22_232
*1823 FILLER_22_240
*1824 FILLER_22_249
*1825 FILLER_22_253
*1826 FILLER_22_258
*1827 FILLER_22_265
*1828 FILLER_22_27
*1829 FILLER_22_273
*1830 FILLER_22_281
*1831 FILLER_22_289
*1832 FILLER_22_29
*1833 FILLER_22_293
*1834 FILLER_22_3
*1835 FILLER_22_38
*1836 FILLER_22_47
*1837 FILLER_22_59
*1838 FILLER_22_65
*1839 FILLER_22_70
*1840 FILLER_22_82
*1841 FILLER_22_85
*1842 FILLER_22_93
*1843 FILLER_23_107
*1844 FILLER_23_111
*1845 FILLER_23_113
*1846 FILLER_23_120
*1847 FILLER_23_143
*1848 FILLER_23_164
*1849 FILLER_23_169
*1850 FILLER_23_174
*1851 FILLER_23_178
*1852 FILLER_23_18
*1853 FILLER_23_182
*1854 FILLER_23_191
*1855 FILLER_23_195
*1856 FILLER_23_199
*1857 FILLER_23_208
*1858 FILLER_23_222
*1859 FILLER_23_225
*1860 FILLER_23_240
*1861 FILLER_23_259
*1862 FILLER_23_26
*1863 FILLER_23_265
*1864 FILLER_23_269
*1865 FILLER_23_278
*1866 FILLER_23_281
*1867 FILLER_23_291
*1868 FILLER_23_3
*1869 FILLER_23_35
*1870 FILLER_23_43
*1871 FILLER_23_49
*1872 FILLER_23_54
*1873 FILLER_23_57
*1874 FILLER_23_65
*1875 FILLER_23_74
*1876 FILLER_23_9
*1877 FILLER_23_98
*1878 FILLER_24_108
*1879 FILLER_24_117
*1880 FILLER_24_12
*1881 FILLER_24_124
*1882 FILLER_24_134
*1883 FILLER_24_141
*1884 FILLER_24_147
*1885 FILLER_24_151
*1886 FILLER_24_162
*1887 FILLER_24_173
*1888 FILLER_24_181
*1889 FILLER_24_188
*1890 FILLER_24_197
*1891 FILLER_24_211
*1892 FILLER_24_225
*1893 FILLER_24_23
*1894 FILLER_24_233
*1895 FILLER_24_242
*1896 FILLER_24_249
*1897 FILLER_24_253
*1898 FILLER_24_262
*1899 FILLER_24_27
*1900 FILLER_24_273
*1901 FILLER_24_280
*1902 FILLER_24_29
*1903 FILLER_24_297
*1904 FILLER_24_3
*1905 FILLER_24_48
*1906 FILLER_24_69
*1907 FILLER_24_77
*1908 FILLER_24_82
*1909 FILLER_24_85
*1910 FILLER_24_91
*1911 FILLER_25_104
*1912 FILLER_25_113
*1913 FILLER_25_119
*1914 FILLER_25_12
*1915 FILLER_25_123
*1916 FILLER_25_144
*1917 FILLER_25_153
*1918 FILLER_25_160
*1919 FILLER_25_169
*1920 FILLER_25_173
*1921 FILLER_25_179
*1922 FILLER_25_196
*1923 FILLER_25_208
*1924 FILLER_25_21
*1925 FILLER_25_218
*1926 FILLER_25_225
*1927 FILLER_25_235
*1928 FILLER_25_247
*1929 FILLER_25_258
*1930 FILLER_25_266
*1931 FILLER_25_274
*1932 FILLER_25_281
*1933 FILLER_25_29
*1934 FILLER_25_296
*1935 FILLER_25_3
*1936 FILLER_25_36
*1937 FILLER_25_44
*1938 FILLER_25_50
*1939 FILLER_25_54
*1940 FILLER_25_57
*1941 FILLER_25_68
*1942 FILLER_25_75
*1943 FILLER_25_83
*1944 FILLER_25_94
*1945 FILLER_26_104
*1946 FILLER_26_110
*1947 FILLER_26_128
*1948 FILLER_26_137
*1949 FILLER_26_141
*1950 FILLER_26_145
*1951 FILLER_26_163
*1952 FILLER_26_174
*1953 FILLER_26_182
*1954 FILLER_26_188
*1955 FILLER_26_197
*1956 FILLER_26_206
*1957 FILLER_26_213
*1958 FILLER_26_224
*1959 FILLER_26_232
*1960 FILLER_26_244
*1961 FILLER_26_253
*1962 FILLER_26_26
*1963 FILLER_26_265
*1964 FILLER_26_29
*1965 FILLER_26_290
*1966 FILLER_26_297
*1967 FILLER_26_3
*1968 FILLER_26_50
*1969 FILLER_26_59
*1970 FILLER_26_63
*1971 FILLER_26_80
*1972 FILLER_26_85
*1973 FILLER_26_9
*1974 FILLER_27_102
*1975 FILLER_27_106
*1976 FILLER_27_110
*1977 FILLER_27_113
*1978 FILLER_27_12
*1979 FILLER_27_120
*1980 FILLER_27_145
*1981 FILLER_27_154
*1982 FILLER_27_160
*1983 FILLER_27_166
*1984 FILLER_27_169
*1985 FILLER_27_175
*1986 FILLER_27_189
*1987 FILLER_27_196
*1988 FILLER_27_202
*1989 FILLER_27_209
*1990 FILLER_27_217
*1991 FILLER_27_222
*1992 FILLER_27_225
*1993 FILLER_27_230
*1994 FILLER_27_241
*1995 FILLER_27_249
*1996 FILLER_27_258