*SPEF "ieee 1481-1999"
*DESIGN "noahgaertner_cpu"
*DATE "11:11:11 Fri 11 11, 1111"
*VENDOR "OpenRCX"
*PROGRAM "Parallel Extraction"
*VERSION "1.0"
*DESIGN_FLOW "NAME_SCOPE LOCAL" "PIN_CAP NONE"
*DIVIDER /
*DELIMITER :
*BUS_DELIMITER []
*T_UNIT 1 NS
*C_UNIT 1 PF
*R_UNIT 1 OHM
*L_UNIT 1 HENRY

*NAME_MAP
*1 io_in[0]
*2 io_in[1]
*3 io_in[2]
*4 io_in[3]
*5 io_in[4]
*6 io_in[5]
*7 io_in[6]
*8 io_in[7]
*9 io_out[0]
*10 io_out[1]
*11 io_out[2]
*12 io_out[3]
*13 io_out[4]
*14 io_out[5]
*15 io_out[6]
*16 io_out[7]
*19 _0000_
*20 _0001_
*21 _0002_
*22 _0003_
*23 _0004_
*24 _0005_
*25 _0006_
*26 _0007_
*27 _0008_
*28 _0009_
*29 _0010_
*30 _0011_
*31 _0012_
*32 _0013_
*33 _0014_
*34 _0015_
*35 _0016_
*36 _0017_
*37 _0018_
*38 _0019_
*39 _0020_
*40 _0021_
*41 _0022_
*42 _0023_
*43 _0024_
*44 _0025_
*45 _0026_
*46 _0027_
*47 _0028_
*48 _0029_
*49 _0030_
*50 _0031_
*51 _0032_
*52 _0033_
*53 _0034_
*54 _0035_
*55 _0036_
*56 _0037_
*57 _0038_
*58 _0039_
*59 _0040_
*60 _0041_
*61 _0042_
*62 _0043_
*63 _0044_
*64 _0045_
*65 _0046_
*66 _0047_
*67 _0048_
*68 _0049_
*69 _0050_
*70 _0051_
*71 _0052_
*72 _0053_
*73 _0054_
*74 _0055_
*75 _0056_
*76 _0057_
*77 _0058_
*78 _0059_
*79 _0060_
*80 _0061_
*81 _0062_
*82 _0063_
*83 _0064_
*84 _0065_
*85 _0066_
*86 _0067_
*87 _0068_
*88 _0069_
*89 _0070_
*90 _0071_
*91 _0072_
*92 _0073_
*93 _0074_
*94 _0075_
*95 _0076_
*96 _0077_
*97 _0078_
*98 _0079_
*99 _0080_
*100 _0081_
*101 _0082_
*102 _0083_
*103 _0084_
*104 _0085_
*105 _0086_
*106 _0087_
*107 _0088_
*108 _0089_
*109 _0090_
*110 _0091_
*111 _0092_
*112 _0093_
*113 _0094_
*114 _0095_
*115 _0096_
*116 _0097_
*117 _0098_
*118 _0099_
*119 _0100_
*120 _0101_
*121 _0102_
*122 _0103_
*123 _0104_
*124 _0105_
*125 _0106_
*126 _0107_
*127 _0108_
*128 _0109_
*129 _0110_
*130 _0111_
*131 _0112_
*132 _0113_
*133 _0114_
*134 _0115_
*135 _0116_
*136 _0117_
*137 _0118_
*138 _0119_
*139 _0120_
*140 _0121_
*141 _0122_
*142 _0123_
*143 _0124_
*144 _0125_
*145 _0126_
*146 _0127_
*147 _0128_
*148 _0129_
*149 _0130_
*150 _0131_
*151 _0132_
*152 _0133_
*153 _0134_
*154 _0135_
*155 _0136_
*156 _0137_
*157 _0138_
*158 _0139_
*159 _0140_
*160 _0141_
*161 _0142_
*162 _0143_
*163 _0144_
*164 _0145_
*165 _0146_
*166 _0147_
*167 _0148_
*168 _0149_
*169 _0150_
*170 _0151_
*171 _0152_
*172 _0153_
*173 _0154_
*174 _0155_
*175 _0156_
*176 _0157_
*177 _0158_
*178 _0159_
*179 _0160_
*180 _0161_
*181 _0162_
*182 _0163_
*183 _0164_
*184 _0165_
*185 _0166_
*186 _0167_
*187 _0168_
*188 _0169_
*189 _0170_
*190 _0171_
*191 _0172_
*192 _0173_
*193 _0174_
*194 _0175_
*195 _0176_
*196 _0177_
*197 _0178_
*198 _0179_
*199 _0180_
*200 _0181_
*201 _0182_
*202 _0183_
*203 _0184_
*204 _0185_
*205 _0186_
*206 _0187_
*207 _0188_
*208 _0189_
*209 _0190_
*210 _0191_
*211 _0192_
*212 _0193_
*213 _0194_
*214 _0195_
*215 _0196_
*216 _0197_
*217 _0198_
*218 _0199_
*219 _0200_
*220 _0201_
*221 _0202_
*222 _0203_
*223 _0204_
*224 _0205_
*225 _0206_
*226 _0207_
*227 _0208_
*228 _0209_
*229 _0210_
*230 _0211_
*231 _0212_
*232 _0213_
*233 _0214_
*234 _0215_
*235 _0216_
*236 _0217_
*237 _0218_
*238 _0219_
*239 _0220_
*240 _0221_
*241 _0222_
*242 _0223_
*243 _0224_
*244 _0225_
*245 _0226_
*246 _0227_
*247 _0228_
*248 _0229_
*249 _0230_
*250 _0231_
*251 _0232_
*252 _0233_
*253 _0234_
*254 _0235_
*255 _0236_
*256 _0237_
*257 _0238_
*258 _0239_
*259 _0240_
*260 _0241_
*261 _0242_
*262 _0243_
*263 _0244_
*264 _0245_
*265 _0246_
*266 _0247_
*267 _0248_
*268 _0249_
*269 _0250_
*270 _0251_
*271 _0252_
*272 _0253_
*273 _0254_
*274 _0255_
*275 _0256_
*276 _0257_
*277 _0258_
*278 _0259_
*279 _0260_
*280 _0261_
*281 _0262_
*282 _0263_
*283 _0264_
*284 _0265_
*285 _0266_
*286 _0267_
*287 _0268_
*288 _0269_
*289 _0270_
*290 _0271_
*291 _0272_
*292 _0273_
*293 _0274_
*294 _0275_
*295 _0276_
*296 _0277_
*297 _0278_
*298 _0279_
*299 _0280_
*300 _0281_
*301 _0282_
*302 _0283_
*303 _0284_
*304 _0285_
*305 _0286_
*306 _0287_
*307 _0288_
*308 _0289_
*309 _0290_
*310 _0291_
*311 _0292_
*312 _0293_
*313 _0294_
*314 _0295_
*315 _0296_
*316 _0297_
*317 _0298_
*318 _0299_
*319 _0300_
*320 _0301_
*321 _0302_
*322 _0303_
*323 _0304_
*324 _0305_
*325 _0306_
*326 _0307_
*327 _0308_
*328 _0309_
*329 _0310_
*330 _0311_
*331 _0312_
*332 _0313_
*333 _0314_
*334 _0315_
*335 _0316_
*336 _0317_
*337 _0318_
*338 _0319_
*339 _0320_
*340 _0321_
*341 _0322_
*342 _0323_
*343 _0324_
*344 _0325_
*345 _0326_
*346 _0327_
*347 _0328_
*348 _0329_
*349 _0330_
*350 _0331_
*351 _0332_
*352 _0333_
*353 _0334_
*354 _0335_
*355 _0336_
*356 _0337_
*357 _0338_
*358 _0339_
*359 _0340_
*360 _0341_
*361 _0342_
*362 _0343_
*363 _0344_
*364 _0345_
*365 _0346_
*366 _0347_
*367 _0348_
*368 _0349_
*369 _0350_
*370 _0351_
*371 _0352_
*372 _0353_
*373 _0354_
*374 _0355_
*375 _0356_
*376 _0357_
*377 _0358_
*378 _0359_
*379 _0360_
*380 _0361_
*381 _0362_
*382 _0363_
*383 _0364_
*384 _0365_
*385 _0366_
*386 _0367_
*387 _0368_
*388 _0369_
*389 _0370_
*390 _0371_
*391 _0372_
*392 _0373_
*393 _0374_
*394 _0375_
*395 _0376_
*396 _0377_
*397 _0378_
*398 _0379_
*399 _0380_
*400 _0381_
*401 _0382_
*402 _0383_
*403 _0384_
*404 _0385_
*405 _0386_
*406 _0387_
*407 _0388_
*408 _0389_
*409 _0390_
*410 _0391_
*411 _0392_
*412 _0393_
*413 _0394_
*414 _0395_
*415 _0396_
*416 _0397_
*417 _0398_
*418 _0399_
*419 _0400_
*420 _0401_
*421 _0402_
*422 _0403_
*423 _0404_
*424 _0405_
*425 _0406_
*426 _0407_
*427 _0408_
*428 _0409_
*429 _0410_
*430 _0411_
*431 _0412_
*432 _0413_
*433 _0414_
*434 _0415_
*435 _0416_
*436 _0417_
*437 _0418_
*438 _0419_
*439 _0420_
*440 _0421_
*441 _0422_
*442 _0423_
*443 _0424_
*444 _0425_
*445 _0426_
*446 _0427_
*447 _0428_
*448 _0429_
*449 _0430_
*450 _0431_
*451 _0432_
*452 _0433_
*453 _0434_
*454 _0435_
*455 _0436_
*456 _0437_
*457 _0438_
*458 _0439_
*459 _0440_
*460 _0441_
*461 _0442_
*462 _0443_
*463 _0444_
*464 _0445_
*465 _0446_
*466 _0447_
*467 _0448_
*468 _0449_
*469 _0450_
*470 _0451_
*471 _0452_
*472 _0453_
*473 _0454_
*474 _0455_
*475 _0456_
*476 _0457_
*477 _0458_
*478 _0459_
*479 _0460_
*480 _0461_
*481 _0462_
*482 _0463_
*483 _0464_
*484 _0465_
*485 _0466_
*486 _0467_
*487 _0468_
*488 _0469_
*489 _0470_
*490 _0471_
*491 _0472_
*492 _0473_
*493 _0474_
*494 _0475_
*495 _0476_
*496 _0477_
*497 _0478_
*498 _0479_
*499 _0480_
*500 _0481_
*501 _0482_
*502 _0483_
*503 _0484_
*504 _0485_
*505 _0486_
*506 _0487_
*507 _0488_
*508 _0489_
*509 _0490_
*510 _0491_
*511 _0492_
*512 _0493_
*513 _0494_
*514 _0495_
*515 _0496_
*516 _0497_
*517 _0498_
*518 _0499_
*519 _0500_
*520 _0501_
*521 _0502_
*522 _0503_
*523 _0504_
*524 _0505_
*525 _0506_
*526 _0507_
*527 _0508_
*528 _0509_
*529 _0510_
*530 _0511_
*531 _0512_
*532 _0513_
*533 _0514_
*534 _0515_
*535 _0516_
*536 _0517_
*537 _0518_
*538 _0519_
*539 _0520_
*540 _0521_
*541 _0522_
*542 _0523_
*543 _0524_
*544 _0525_
*545 _0526_
*546 _0527_
*547 _0528_
*548 _0529_
*549 _0530_
*550 _0531_
*551 _0532_
*552 _0533_
*553 _0534_
*554 _0535_
*555 _0536_
*556 _0537_
*557 _0538_
*558 _0539_
*559 _0540_
*560 _0541_
*561 _0542_
*562 _0543_
*563 _0544_
*564 _0545_
*565 _0546_
*566 _0547_
*567 _0548_
*568 _0549_
*569 _0550_
*570 _0551_
*571 _0552_
*572 _0553_
*573 _0554_
*574 _0555_
*575 _0556_
*576 _0557_
*577 _0558_
*578 _0559_
*579 _0560_
*580 _0561_
*581 _0562_
*582 _0563_
*583 _0564_
*584 _0565_
*585 _0566_
*586 _0567_
*587 _0568_
*588 _0569_
*589 _0570_
*590 _0571_
*591 _0572_
*592 _0573_
*593 _0574_
*594 _0575_
*595 _0576_
*596 _0577_
*597 _0578_
*598 _0579_
*599 _0580_
*600 _0581_
*601 _0582_
*602 _0583_
*603 _0584_
*604 _0585_
*605 _0586_
*606 _0587_
*607 _0588_
*608 _0589_
*609 _0590_
*610 _0591_
*611 _0592_
*612 _0593_
*613 _0594_
*614 _0595_
*615 _0596_
*616 _0597_
*617 _0598_
*618 _0599_
*619 _0600_
*620 _0601_
*621 _0602_
*622 _0603_
*623 _0604_
*624 _0605_
*625 _0606_
*626 _0607_
*627 _0608_
*628 _0609_
*629 _0610_
*630 _0611_
*631 _0612_
*632 _0613_
*633 _0614_
*634 _0615_
*635 _0616_
*636 _0617_
*637 _0618_
*638 _0619_
*639 _0620_
*640 _0621_
*641 _0622_
*642 _0623_
*643 _0624_
*644 _0625_
*645 _0626_
*646 _0627_
*647 _0628_
*648 _0629_
*649 _0630_
*650 _0631_
*651 _0632_
*652 _0633_
*653 _0634_
*654 _0635_
*655 _0636_
*656 _0637_
*657 _0638_
*658 _0639_
*659 _0640_
*660 _0641_
*661 _0642_
*662 _0643_
*663 _0644_
*664 _0645_
*665 _0646_
*666 _0647_
*667 _0648_
*668 _0649_
*669 _0650_
*670 _0651_
*671 _0652_
*672 _0653_
*673 _0654_
*674 _0655_
*675 _0656_
*676 _0657_
*677 _0658_
*678 _0659_
*679 _0660_
*680 _0661_
*681 _0662_
*682 _0663_
*683 _0664_
*684 _0665_
*685 _0666_
*686 _0667_
*687 clknet_0_io_in[0]
*688 clknet_4_0_0_io_in[0]
*689 clknet_4_10_0_io_in[0]
*690 clknet_4_11_0_io_in[0]
*691 clknet_4_12_0_io_in[0]
*692 clknet_4_13_0_io_in[0]
*693 clknet_4_14_0_io_in[0]
*694 clknet_4_15_0_io_in[0]
*695 clknet_4_1_0_io_in[0]
*696 clknet_4_2_0_io_in[0]
*697 clknet_4_3_0_io_in[0]
*698 clknet_4_4_0_io_in[0]
*699 clknet_4_5_0_io_in[0]
*700 clknet_4_6_0_io_in[0]
*701 clknet_4_7_0_io_in[0]
*702 clknet_4_8_0_io_in[0]
*703 clknet_4_9_0_io_in[0]
*704 data\[0\]\[0\]
*705 data\[0\]\[1\]
*706 data\[0\]\[2\]
*707 data\[0\]\[3\]
*708 data\[10\]\[0\]
*709 data\[10\]\[1\]
*710 data\[10\]\[2\]
*711 data\[10\]\[3\]
*712 data\[11\]\[0\]
*713 data\[11\]\[1\]
*714 data\[11\]\[2\]
*715 data\[11\]\[3\]
*716 data\[12\]\[0\]
*717 data\[12\]\[1\]
*718 data\[12\]\[2\]
*719 data\[12\]\[3\]
*720 data\[13\]\[0\]
*721 data\[13\]\[1\]
*722 data\[13\]\[2\]
*723 data\[13\]\[3\]
*724 data\[14\]\[0\]
*725 data\[14\]\[1\]
*726 data\[14\]\[2\]
*727 data\[14\]\[3\]
*728 data\[15\]\[0\]
*729 data\[15\]\[1\]
*730 data\[15\]\[2\]
*731 data\[15\]\[3\]
*732 data\[1\]\[0\]
*733 data\[1\]\[1\]
*734 data\[1\]\[2\]
*735 data\[1\]\[3\]
*736 data\[2\]\[0\]
*737 data\[2\]\[1\]
*738 data\[2\]\[2\]
*739 data\[2\]\[3\]
*740 data\[3\]\[0\]
*741 data\[3\]\[1\]
*742 data\[3\]\[2\]
*743 data\[3\]\[3\]
*744 data\[4\]\[0\]
*745 data\[4\]\[1\]
*746 data\[4\]\[2\]
*747 data\[4\]\[3\]
*748 data\[5\]\[0\]
*749 data\[5\]\[1\]
*750 data\[5\]\[2\]
*751 data\[5\]\[3\]
*752 data\[6\]\[0\]
*753 data\[6\]\[1\]
*754 data\[6\]\[2\]
*755 data\[6\]\[3\]
*756 data\[7\]\[0\]
*757 data\[7\]\[1\]
*758 data\[7\]\[2\]
*759 data\[7\]\[3\]
*760 data\[8\]\[0\]
*761 data\[8\]\[1\]
*762 data\[8\]\[2\]
*763 data\[8\]\[3\]
*764 data\[9\]\[0\]
*765 data\[9\]\[1\]
*766 data\[9\]\[2\]
*767 data\[9\]\[3\]
*768 lastdata3
*769 net1
*770 net2
*771 net3
*772 net4
*773 net5
*774 net6
*775 net7
*776 prog\[0\]\[0\]
*777 prog\[0\]\[1\]
*778 prog\[0\]\[2\]
*779 prog\[0\]\[3\]
*780 prog\[10\]\[0\]
*781 prog\[10\]\[1\]
*782 prog\[10\]\[2\]
*783 prog\[10\]\[3\]
*784 prog\[11\]\[0\]
*785 prog\[11\]\[1\]
*786 prog\[11\]\[2\]
*787 prog\[11\]\[3\]
*788 prog\[12\]\[0\]
*789 prog\[12\]\[1\]
*790 prog\[12\]\[2\]
*791 prog\[12\]\[3\]
*792 prog\[13\]\[0\]
*793 prog\[13\]\[1\]
*794 prog\[13\]\[2\]
*795 prog\[13\]\[3\]
*796 prog\[14\]\[0\]
*797 prog\[14\]\[1\]
*798 prog\[14\]\[2\]
*799 prog\[14\]\[3\]
*800 prog\[15\]\[0\]
*801 prog\[15\]\[1\]
*802 prog\[15\]\[2\]
*803 prog\[15\]\[3\]
*804 prog\[1\]\[0\]
*805 prog\[1\]\[1\]
*806 prog\[1\]\[2\]
*807 prog\[1\]\[3\]
*808 prog\[2\]\[0\]
*809 prog\[2\]\[1\]
*810 prog\[2\]\[2\]
*811 prog\[2\]\[3\]
*812 prog\[3\]\[0\]
*813 prog\[3\]\[1\]
*814 prog\[3\]\[2\]
*815 prog\[3\]\[3\]
*816 prog\[4\]\[0\]
*817 prog\[4\]\[1\]
*818 prog\[4\]\[2\]
*819 prog\[4\]\[3\]
*820 prog\[5\]\[0\]
*821 prog\[5\]\[1\]
*822 prog\[5\]\[2\]
*823 prog\[5\]\[3\]
*824 prog\[6\]\[0\]
*825 prog\[6\]\[1\]
*826 prog\[6\]\[2\]
*827 prog\[6\]\[3\]
*828 prog\[7\]\[0\]
*829 prog\[7\]\[1\]
*830 prog\[7\]\[2\]
*831 prog\[7\]\[3\]
*832 prog\[8\]\[0\]
*833 prog\[8\]\[1\]
*834 prog\[8\]\[2\]
*835 prog\[8\]\[3\]
*836 prog\[9\]\[0\]
*837 prog\[9\]\[1\]
*838 prog\[9\]\[2\]
*839 prog\[9\]\[3\]
*840 ANTENNA_1
*841 ANTENNA_10
*842 ANTENNA_11
*843 ANTENNA_12
*844 ANTENNA_13
*845 ANTENNA_14
*846 ANTENNA_15
*847 ANTENNA_16
*848 ANTENNA_17
*849 ANTENNA_18
*850 ANTENNA_19
*851 ANTENNA_2
*852 ANTENNA_20
*853 ANTENNA_21
*854 ANTENNA_22
*855 ANTENNA_23
*856 ANTENNA_24
*857 ANTENNA_25
*858 ANTENNA_26
*859 ANTENNA_27
*860 ANTENNA_28
*861 ANTENNA_29
*862 ANTENNA_3
*863 ANTENNA_30
*864 ANTENNA_31
*865 ANTENNA_32
*866 ANTENNA_33
*867 ANTENNA_34
*868 ANTENNA_35
*869 ANTENNA_36
*870 ANTENNA_37
*871 ANTENNA_38
*872 ANTENNA_39
*873 ANTENNA_4
*874 ANTENNA_40
*875 ANTENNA_41
*876 ANTENNA_42
*877 ANTENNA_43
*878 ANTENNA_44
*879 ANTENNA_45
*880 ANTENNA_46
*881 ANTENNA_47
*882 ANTENNA_48
*883 ANTENNA_49
*884 ANTENNA_5
*885 ANTENNA_50
*886 ANTENNA_51
*887 ANTENNA_52
*888 ANTENNA_53
*889 ANTENNA_54
*890 ANTENNA_55
*891 ANTENNA_56
*892 ANTENNA_57
*893 ANTENNA_58
*894 ANTENNA_59
*895 ANTENNA_6
*896 ANTENNA_60
*897 ANTENNA_61
*898 ANTENNA_62
*899 ANTENNA_63
*900 ANTENNA_7
*901 ANTENNA_8
*902 ANTENNA_9
*903 FILLER_0_108
*904 FILLER_0_113
*905 FILLER_0_120
*906 FILLER_0_129
*907 FILLER_0_138
*908 FILLER_0_141
*909 FILLER_0_146
*910 FILLER_0_150
*911 FILLER_0_160
*912 FILLER_0_169
*913 FILLER_0_176
*914 FILLER_0_191
*915 FILLER_0_195
*916 FILLER_0_197
*917 FILLER_0_204
*918 FILLER_0_213
*919 FILLER_0_222
*920 FILLER_0_225
*921 FILLER_0_232
*922 FILLER_0_241
*923 FILLER_0_250
*924 FILLER_0_253
*925 FILLER_0_26
*926 FILLER_0_264
*927 FILLER_0_273
*928 FILLER_0_279
*929 FILLER_0_281
*930 FILLER_0_288
*931 FILLER_0_29
*932 FILLER_0_297
*933 FILLER_0_3
*934 FILLER_0_53
*935 FILLER_0_57
*936 FILLER_0_75
*937 FILLER_0_83
*938 FILLER_0_85
*939 FILLER_0_9
*940 FILLER_0_93
*941 FILLER_0_99
*942 FILLER_10_105
*943 FILLER_10_116
*944 FILLER_10_124
*945 FILLER_10_131
*946 FILLER_10_139
*947 FILLER_10_141
*948 FILLER_10_149
*949 FILLER_10_157
*950 FILLER_10_169
*951 FILLER_10_173
*952 FILLER_10_179
*953 FILLER_10_191
*954 FILLER_10_195
*955 FILLER_10_197
*956 FILLER_10_209
*957 FILLER_10_220
*958 FILLER_10_226
*959 FILLER_10_232
*960 FILLER_10_238
*961 FILLER_10_248
*962 FILLER_10_253
*963 FILLER_10_26
*964 FILLER_10_263
*965 FILLER_10_275
*966 FILLER_10_279
*967 FILLER_10_283
*968 FILLER_10_287
*969 FILLER_10_29
*970 FILLER_10_293
*971 FILLER_10_3
*972 FILLER_10_51
*973 FILLER_10_71
*974 FILLER_10_83
*975 FILLER_10_85
*976 FILLER_10_9
*977 FILLER_10_93
*978 FILLER_11_105
*979 FILLER_11_111
*980 FILLER_11_113
*981 FILLER_11_120
*982 FILLER_11_137
*983 FILLER_11_141
*984 FILLER_11_150
*985 FILLER_11_164
*986 FILLER_11_169
*987 FILLER_11_177
*988 FILLER_11_185
*989 FILLER_11_192
*990 FILLER_11_204
*991 FILLER_11_212
*992 FILLER_11_222
*993 FILLER_11_225
*994 FILLER_11_229
*995 FILLER_11_234
*996 FILLER_11_246
*997 FILLER_11_259
*998 FILLER_11_263
*999 FILLER_11_269
*1000 FILLER_11_278
*1001 FILLER_11_281
*1002 FILLER_11_293
*1003 FILLER_11_3
*1004 FILLER_11_31
*1005 FILLER_11_51
*1006 FILLER_11_55
*1007 FILLER_11_57
*1008 FILLER_11_75
*1009 FILLER_11_83
*1010 FILLER_11_9
*1011 FILLER_12_103
*1012 FILLER_12_112
*1013 FILLER_12_124
*1014 FILLER_12_136
*1015 FILLER_12_141
*1016 FILLER_12_153
*1017 FILLER_12_159
*1018 FILLER_12_168
*1019 FILLER_12_174
*1020 FILLER_12_183
*1021 FILLER_12_191
*1022 FILLER_12_194
*1023 FILLER_12_197
*1024 FILLER_12_208
*1025 FILLER_12_212
*1026 FILLER_12_224
*1027 FILLER_12_227
*1028 FILLER_12_250
*1029 FILLER_12_253
*1030 FILLER_12_26
*1031 FILLER_12_277
*1032 FILLER_12_285
*1033 FILLER_12_29
*1034 FILLER_12_293
*1035 FILLER_12_3
*1036 FILLER_12_41
*1037 FILLER_12_65
*1038 FILLER_12_73
*1039 FILLER_12_80
*1040 FILLER_12_85
*1041 FILLER_12_9
*1042 FILLER_12_97
*1043 FILLER_13_111
*1044 FILLER_13_113
*1045 FILLER_13_125
*1046 FILLER_13_137
*1047 FILLER_13_148
*1048 FILLER_13_155
*1049 FILLER_13_167
*1050 FILLER_13_169
*1051 FILLER_13_174
*1052 FILLER_13_186
*1053 FILLER_13_198
*1054 FILLER_13_210
*1055 FILLER_13_22
*1056 FILLER_13_222
*1057 FILLER_13_225
*1058 FILLER_13_235
*1059 FILLER_13_244
*1060 FILLER_13_256
*1061 FILLER_13_264
*1062 FILLER_13_276
*1063 FILLER_13_281
*1064 FILLER_13_292
*1065 FILLER_13_298
*1066 FILLER_13_3
*1067 FILLER_13_30
*1068 FILLER_13_49
*1069 FILLER_13_55
*1070 FILLER_13_57
*1071 FILLER_13_75
*1072 FILLER_13_81
*1073 FILLER_13_87
*1074 FILLER_13_99
*1075 FILLER_14_119
*1076 FILLER_14_131
*1077 FILLER_14_139
*1078 FILLER_14_141
*1079 FILLER_14_153
*1080 FILLER_14_165
*1081 FILLER_14_177
*1082 FILLER_14_189
*1083 FILLER_14_195
*1084 FILLER_14_197
*1085 FILLER_14_209
*1086 FILLER_14_223
*1087 FILLER_14_234
*1088 FILLER_14_246
*1089 FILLER_14_253
*1090 FILLER_14_259
*1091 FILLER_14_26
*1092 FILLER_14_267
*1093 FILLER_14_273
*1094 FILLER_14_285
*1095 FILLER_14_29
*1096 FILLER_14_297
*1097 FILLER_14_3
*1098 FILLER_14_33
*1099 FILLER_14_45
*1100 FILLER_14_65
*1101 FILLER_14_77
*1102 FILLER_14_83
*1103 FILLER_14_85
*1104 FILLER_14_9
*1105 FILLER_14_93
*1106 FILLER_14_96
*1107 FILLER_15_106
*1108 FILLER_15_113
*1109 FILLER_15_124
*1110 FILLER_15_132
*1111 FILLER_15_144
*1112 FILLER_15_166
*1113 FILLER_15_169
*1114 FILLER_15_181
*1115 FILLER_15_187
*1116 FILLER_15_209
*1117 FILLER_15_213
*1118 FILLER_15_22
*1119 FILLER_15_221
*1120 FILLER_15_225
*1121 FILLER_15_230
*1122 FILLER_15_242
*1123 FILLER_15_250
*1124 FILLER_15_259
*1125 FILLER_15_271
*1126 FILLER_15_279
*1127 FILLER_15_281
*1128 FILLER_15_288
*1129 FILLER_15_296
*1130 FILLER_15_3
*1131 FILLER_15_34
*1132 FILLER_15_54
*1133 FILLER_15_57
*1134 FILLER_15_70
*1135 FILLER_15_82
*1136 FILLER_15_94
*1137 FILLER_16_105
*1138 FILLER_16_117
*1139 FILLER_16_129
*1140 FILLER_16_137
*1141 FILLER_16_141
*1142 FILLER_16_153
*1143 FILLER_16_165
*1144 FILLER_16_177
*1145 FILLER_16_187
*1146 FILLER_16_195
*1147 FILLER_16_197
*1148 FILLER_16_220
*1149 FILLER_16_232
*1150 FILLER_16_246
*1151 FILLER_16_253
*1152 FILLER_16_26
*1153 FILLER_16_265
*1154 FILLER_16_277
*1155 FILLER_16_29
*1156 FILLER_16_291
*1157 FILLER_16_3
*1158 FILLER_16_42
*1159 FILLER_16_48
*1160 FILLER_16_65
*1161 FILLER_16_82
*1162 FILLER_16_85
*1163 FILLER_16_9
*1164 FILLER_17_111
*1165 FILLER_17_113
*1166 FILLER_17_125
*1167 FILLER_17_136
*1168 FILLER_17_150
*1169 FILLER_17_162
*1170 FILLER_17_169
*1171 FILLER_17_181
*1172 FILLER_17_193
*1173 FILLER_17_20
*1174 FILLER_17_205
*1175 FILLER_17_213
*1176 FILLER_17_221
*1177 FILLER_17_225
*1178 FILLER_17_239
*1179 FILLER_17_251
*1180 FILLER_17_263
*1181 FILLER_17_275
*1182 FILLER_17_279
*1183 FILLER_17_281
*1184 FILLER_17_292
*1185 FILLER_17_298
*1186 FILLER_17_3
*1187 FILLER_17_40
*1188 FILLER_17_52
*1189 FILLER_17_57
*1190 FILLER_17_75
*1191 FILLER_17_87
*1192 FILLER_17_99
*1193 FILLER_18_106
*1194 FILLER_18_118
*1195 FILLER_18_130
*1196 FILLER_18_138
*1197 FILLER_18_141
*1198 FILLER_18_153
*1199 FILLER_18_161
*1200 FILLER_18_172
*1201 FILLER_18_184
*1202 FILLER_18_197
*1203 FILLER_18_209
*1204 FILLER_18_22
*1205 FILLER_18_234
*1206 FILLER_18_246
*1207 FILLER_18_253
*1208 FILLER_18_260
*1209 FILLER_18_268
*1210 FILLER_18_280
*1211 FILLER_18_288
*1212 FILLER_18_29
*1213 FILLER_18_297
*1214 FILLER_18_3
*1215 FILLER_18_35
*1216 FILLER_18_47
*1217 FILLER_18_65
*1218 FILLER_18_73
*1219 FILLER_18_82
*1220 FILLER_18_85
*1221 FILLER_18_94
*1222 FILLER_19_109
*1223 FILLER_19_11
*1224 FILLER_19_113
*1225 FILLER_19_121
*1226 FILLER_19_129
*1227 FILLER_19_140
*1228 FILLER_19_156
*1229 FILLER_19_169
*1230 FILLER_19_181
*1231 FILLER_19_205
*1232 FILLER_19_216
*1233 FILLER_19_225
*1234 FILLER_19_233
*1235 FILLER_19_243
*1236 FILLER_19_256
*1237 FILLER_19_268
*1238 FILLER_19_28
*1239 FILLER_19_281
*1240 FILLER_19_288
*1241 FILLER_19_297
*1242 FILLER_19_3
*1243 FILLER_19_48
*1244 FILLER_19_57
*1245 FILLER_19_70
*1246 FILLER_19_82
*1247 FILLER_19_90
*1248 FILLER_19_97
*1249 FILLER_1_110
*1250 FILLER_1_113
*1251 FILLER_1_125
*1252 FILLER_1_133
*1253 FILLER_1_144
*1254 FILLER_1_15
*1255 FILLER_1_158
*1256 FILLER_1_166
*1257 FILLER_1_178
*1258 FILLER_1_182
*1259 FILLER_1_193
*1260 FILLER_1_206
*1261 FILLER_1_219
*1262 FILLER_1_223
*1263 FILLER_1_225
*1264 FILLER_1_232
*1265 FILLER_1_249
*1266 FILLER_1_271
*1267 FILLER_1_279
*1268 FILLER_1_281
*1269 FILLER_1_293
*1270 FILLER_1_3
*1271 FILLER_1_42
*1272 FILLER_1_54
*1273 FILLER_1_57
*1274 FILLER_1_75
*1275 FILLER_1_84
*1276 FILLER_1_97
*1277 FILLER_20_102
*1278 FILLER_20_114
*1279 FILLER_20_121
*1280 FILLER_20_133
*1281 FILLER_20_139
*1282 FILLER_20_141
*1283 FILLER_20_153
*1284 FILLER_20_159
*1285 FILLER_20_164
*1286 FILLER_20_174
*1287 FILLER_20_186
*1288 FILLER_20_194
*1289 FILLER_20_197
*1290 FILLER_20_209
*1291 FILLER_20_221
*1292 FILLER_20_233
*1293 FILLER_20_246
*1294 FILLER_20_253
*1295 FILLER_20_26
*1296 FILLER_20_262
*1297 FILLER_20_272
*1298 FILLER_20_284
*1299 FILLER_20_29
*1300 FILLER_20_296
*1301 FILLER_20_3
*1302 FILLER_20_48
*1303 FILLER_20_68
*1304 FILLER_20_80
*1305 FILLER_20_85
*1306 FILLER_20_89
*1307 FILLER_20_9
*1308 FILLER_20_93
*1309 FILLER_21_108
*1310 FILLER_21_113
*1311 FILLER_21_121
*1312 FILLER_21_128
*1313 FILLER_21_136
*1314 FILLER_21_139
*1315 FILLER_21_143
*1316 FILLER_21_166
*1317 FILLER_21_169
*1318 FILLER_21_18
*1319 FILLER_21_180
*1320 FILLER_21_192
*1321 FILLER_21_204
*1322 FILLER_21_216
*1323 FILLER_21_22
*1324 FILLER_21_225
*1325 FILLER_21_233
*1326 FILLER_21_237
*1327 FILLER_21_260
*1328 FILLER_21_272
*1329 FILLER_21_281
*1330 FILLER_21_293
*1331 FILLER_21_3
*1332 FILLER_21_43
*1333 FILLER_21_53
*1334 FILLER_21_57
*1335 FILLER_21_75
*1336 FILLER_21_87
*1337 FILLER_21_96
*1338 FILLER_22_100
*1339 FILLER_22_106
*1340 FILLER_22_116
*1341 FILLER_22_128
*1342 FILLER_22_141
*1343 FILLER_22_153
*1344 FILLER_22_165
*1345 FILLER_22_177
*1346 FILLER_22_183
*1347 FILLER_22_190
*1348 FILLER_22_197
*1349 FILLER_22_206
*1350 FILLER_22_215
*1351 FILLER_22_226
*1352 FILLER_22_236
*1353 FILLER_22_248
*1354 FILLER_22_253
*1355 FILLER_22_26
*1356 FILLER_22_270
*1357 FILLER_22_282
*1358 FILLER_22_29
*1359 FILLER_22_294
*1360 FILLER_22_298
*1361 FILLER_22_3
*1362 FILLER_22_47
*1363 FILLER_22_51
*1364 FILLER_22_68
*1365 FILLER_22_8
*1366 FILLER_22_80
*1367 FILLER_22_85
*1368 FILLER_22_93
*1369 FILLER_23_108
*1370 FILLER_23_113
*1371 FILLER_23_125
*1372 FILLER_23_131
*1373 FILLER_23_147
*1374 FILLER_23_153
*1375 FILLER_23_163
*1376 FILLER_23_167
*1377 FILLER_23_169
*1378 FILLER_23_173
*1379 FILLER_23_182
*1380 FILLER_23_194
*1381 FILLER_23_206
*1382 FILLER_23_21
*1383 FILLER_23_218
*1384 FILLER_23_225
*1385 FILLER_23_237
*1386 FILLER_23_249
*1387 FILLER_23_25
*1388 FILLER_23_261
*1389 FILLER_23_273
*1390 FILLER_23_279
*1391 FILLER_23_281
*1392 FILLER_23_29
*1393 FILLER_23_293
*1394 FILLER_23_3
*1395 FILLER_23_46
*1396 FILLER_23_50
*1397 FILLER_23_57
*1398 FILLER_23_75
*1399 FILLER_23_79
*1400 FILLER_23_91
*1401 FILLER_24_100
*1402 FILLER_24_104
*1403 FILLER_24_116
*1404 FILLER_24_128
*1405 FILLER_24_141
*1406 FILLER_24_153
*1407 FILLER_24_165
*1408 FILLER_24_177
*1409 FILLER_24_185
*1410 FILLER_24_194
*1411 FILLER_24_197
*1412 FILLER_24_205
*1413 FILLER_24_211
*1414 FILLER_24_223
*1415 FILLER_24_231
*1416 FILLER_24_235
*1417 FILLER_24_247
*1418 FILLER_24_251
*1419 FILLER_24_253
*1420 FILLER_24_26
*1421 FILLER_24_265
*1422 FILLER_24_277
*1423 FILLER_24_289
*1424 FILLER_24_29
*1425 FILLER_24_297
*1426 FILLER_24_3
*1427 FILLER_24_46
*1428 FILLER_24_66
*1429 FILLER_24_78
*1430 FILLER_24_85
*1431 FILLER_24_9
*1432 FILLER_24_96
*1433 FILLER_25_102
*1434 FILLER_25_110
*1435 FILLER_25_113
*1436 FILLER_25_121
*1437 FILLER_25_133
*1438 FILLER_25_140
*1439 FILLER_25_152
*1440 FILLER_25_158
*1441 FILLER_25_165
*1442 FILLER_25_169
*1443 FILLER_25_181
*1444 FILLER_25_193
*1445 FILLER_25_201
*1446 FILLER_25_207
*1447 FILLER_25_21
*1448 FILLER_25_211
*1449 FILLER_25_222
*1450 FILLER_25_225
*1451 FILLER_25_254
*1452 FILLER_25_266
*1453 FILLER_25_278
*1454 FILLER_25_281
*1455 FILLER_25_293
*1456 FILLER_25_3
*1457 FILLER_25_41
*1458 FILLER_25_51
*1459 FILLER_25_55
*1460 FILLER_25_57
*1461 FILLER_25_69
*1462 FILLER_25_85
*1463 FILLER_25_93
*1464 FILLER_26_104
*1465 FILLER_26_113
*1466 FILLER_26_117
*1467 FILLER_26_123
*1468 FILLER_26_131
*1469 FILLER_26_138
*1470 FILLER_26_141
*1471 FILLER_26_164
*1472 FILLER_26_181
*1473 FILLER_26_189
*1474 FILLER_26_194
*1475 FILLER_26_197
*1476 FILLER_26_201
*1477 FILLER_26_206
*1478 FILLER_26_218
*1479 FILLER_26_22
*1480 FILLER_26_228
*1481 FILLER_26_240
*1482 FILLER_26_253
*1483 FILLER_26_265
*1484 FILLER_26_277
*1485 FILLER_26_289
*1486 FILLER_26_29
*1487 FILLER_26_297
*1488 FILLER_26_3
*1489 FILLER_26_42
*1490 FILLER_26_66
*1491 FILLER_26_78
*1492 FILLER_26_85
*1493 FILLER_26_89
*1494 FILLER_26_95
*1495 FILLER_27_104
*1496 FILLER_27_11
*1497 FILLER_27_110
*1498 FILLER_27_113
*1499 FILLER_27_123
*1500 FILLER_27_133
*1501 FILLER_27_141
*1502 FILLER_27_149
*1503 FILLER_27_162
*1504 FILLER_27_169
*1505 FILLER_27_178
*1506 FILLER_27_186
*1507 FILLER_27_192
*1508 FILLER_27_206
*1509 FILLER_27_222
*1510 FILLER_27_225
*1511 FILLER_27_234
*1512 FILLER_27_246
*1513 FILLER_27_254
*1514 FILLER_27_263
*1515 FILLER_27_275
*1516 FILLER_27_279
*1517 FILLER_27_281
*1518 FILLER_27_293
*1519 FILLER_27_3
*1520 FILLER_27_39
*1521 FILLER_27_51
*1522 FILLER_27_55
*1523 FILLER_27_57
*1524 FILLER_27_75
*1525 FILLER_27_87
*1526 FILLER_27_96
*1527 FILLER_28_102
*1528 FILLER_28_109
*1529 FILLER_28_117
*1530 FILLER_28_124
*1531 FILLER_28_136
*1532 FILLER_28_141
*1533 FILLER_28_149
*1534 FILLER_28_161
*1535 FILLER_28_168
*1536 FILLER_28_180
*1537 FILLER_28_191
*1538 FILLER_28_195
*1539 FILLER_28_197
*1540 FILLER_28_208
*1541 FILLER_28_23
*1542 FILLER_28_233
*1543 FILLER_28_241
*1544 FILLER_28_250
*1545 FILLER_28_253
*1546 FILLER_28_265
*1547 FILLER_28_27
*1548 FILLER_28_273
*1549 FILLER_28_279
*1550 FILLER_28_29
*1551 FILLER_28_291
*1552 FILLER_28_3
*1553 FILLER_28_33
*1554 FILLER_28_45
*1555 FILLER_28_49
*1556 FILLER_28_66
*1557 FILLER_28_75
*1558 FILLER_28_82
*1559 FILLER_28_85
*1560 FILLER_28_95
*1561 FILLER_29_106
*1562 FILLER_29_113
*1563 FILLER_29_121
*1564 FILLER_29_128
*1565 FILLER_29_132
*1566 FILLER_29_142
*1567 FILLER_29_158
*1568 FILLER_29_165
*1569 FILLER_29_169
*1570 FILLER_29_178
*1571 FILLER_29_191
*1572 FILLER_29_200
*1573 FILLER_29_212
*1574 FILLER_29_22
*1575 FILLER_29_225
*1576 FILLER_29_237
*1577 FILLER_29_246
*1578 FILLER_29_258
*1579 FILLER_29_270
*1580 FILLER_29_278
*1581 FILLER_29_281
*1582 FILLER_29_293
*1583 FILLER_29_3
*1584 FILLER_29_54
*1585 FILLER_29_57
*1586 FILLER_29_75
*1587 FILLER_29_79
*1588 FILLER_29_88
*1589 FILLER_29_96
*1590 FILLER_2_106
*1591 FILLER_2_115
*1592 FILLER_2_123
*1593 FILLER_2_129
*1594 FILLER_2_138
*1595 FILLER_2_141
*1596 FILLER_2_155
*1597 FILLER_2_161
*1598 FILLER_2_165
*1599 FILLER_2_176
*1600 FILLER_2_194
*1601 FILLER_2_197
*1602 FILLER_2_201
*1603 FILLER_2_211
*1604 FILLER_2_215
*1605 FILLER_2_238
*1606 FILLER_2_246
*1607 FILLER_2_253
*1608 FILLER_2_26
*1609 FILLER_2_270
*1610 FILLER_2_274
*1611 FILLER_2_285
*1612 FILLER_2_29
*1613 FILLER_2_294
*1614 FILLER_2_298
*1615 FILLER_2_3
*1616 FILLER_2_47
*1617 FILLER_2_67
*1618 FILLER_2_81
*1619 FILLER_2_85
*1620 FILLER_2_9
*1621 FILLER_2_95
*1622 FILLER_30_104
*1623 FILLER_30_119
*1624 FILLER_30_125
*1625 FILLER_30_133
*1626 FILLER_30_139
*1627 FILLER_30_141
*1628 FILLER_30_148
*1629 FILLER_30_158
*1630 FILLER_30_166
*1631 FILLER_30_173
*1632 FILLER_30_188
*1633 FILLER_30_197
*1634 FILLER_30_204
*1635 FILLER_30_21
*1636 FILLER_30_216
*1637 FILLER_30_228
*1638 FILLER_30_240
*1639 FILLER_30_253
*1640 FILLER_30_265
*1641 FILLER_30_27
*1642 FILLER_30_277
*1643 FILLER_30_289
*1644 FILLER_30_297
*1645 FILLER_30_3
*1646 FILLER_30_45
*1647 FILLER_30_49
*1648 FILLER_30_67
*1649 FILLER_30_79
*1650 FILLER_30_83
*1651 FILLER_30_85
*1652 FILLER_30_91
*1653 FILLER_31_105
*1654 FILLER_31_109
*1655 FILLER_31_113
*1656 FILLER_31_140
*1657 FILLER_31_153
*1658 FILLER_31_157
*1659 FILLER_31_162
*1660 FILLER_31_169
*1661 FILLER_31_176
*1662 FILLER_31_183
*1663 FILLER_31_187
*1664 FILLER_31_193
*1665 FILLER_31_200
*1666 FILLER_31_21
*1667 FILLER_31_212
*1668 FILLER_31_225
*1669 FILLER_31_229
*1670 FILLER_31_235
*1671 FILLER_31_247
*1672 FILLER_31_25
*1673 FILLER_31_259
*1674 FILLER_31_271
*1675 FILLER_31_278
*1676 FILLER_31_281
*1677 FILLER_31_293
*1678 FILLER_31_3
*1679 FILLER_31_35
*1680 FILLER_31_53
*1681 FILLER_31_57
*1682 FILLER_31_75
*1683 FILLER_31_87
*1684 FILLER_31_99
*1685 FILLER_32_108
*1686 FILLER_32_120
*1687 FILLER_32_130
*1688 FILLER_32_138
*1689 FILLER_32_141
*1690 FILLER_32_145
*1691 FILLER_32_155
*1692 FILLER_32_159
*1693 FILLER_32_167
*1694 FILLER_32_184
*1695 FILLER_32_193
*1696 FILLER_32_197
*1697 FILLER_32_212
*1698 FILLER_32_236
*1699 FILLER_32_248
*1700 FILLER_32_253
*1701 FILLER_32_26
*1702 FILLER_32_265
*1703 FILLER_32_277
*1704 FILLER_32_289
*1705 FILLER_32_29
*1706 FILLER_32_297
*1707 FILLER_32_3
*1708 FILLER_32_37
*1709 FILLER_32_40
*1710 FILLER_32_58
*1711 FILLER_32_73
*1712 FILLER_32_82
*1713 FILLER_32_85
*1714 FILLER_32_9
*1715 FILLER_33_102
*1716 FILLER_33_110
*1717 FILLER_33_113
*1718 FILLER_33_124
*1719 FILLER_33_133
*1720 FILLER_33_145
*1721 FILLER_33_156
*1722 FILLER_33_166
*1723 FILLER_33_169
*1724 FILLER_33_179
*1725 FILLER_33_187
*1726 FILLER_33_198
*1727 FILLER_33_202
*1728 FILLER_33_209
*1729 FILLER_33_21
*1730 FILLER_33_221
*1731 FILLER_33_225
*1732 FILLER_33_232
*1733 FILLER_33_244
*1734 FILLER_33_251
*1735 FILLER_33_263
*1736 FILLER_33_278
*1737 FILLER_33_281
*1738 FILLER_33_293
*1739 FILLER_33_3
*1740 FILLER_33_36
*1741 FILLER_33_48
*1742 FILLER_33_57
*1743 FILLER_33_75
*1744 FILLER_33_79
*1745 FILLER_33_85
*1746 FILLER_33_94
*1747 FILLER_34_106
*1748 FILLER_34_121
*1749 FILLER_34_125
*1750 FILLER_34_132
*1751 FILLER_34_141
*1752 FILLER_34_146
*1753 FILLER_34_155
*1754 FILLER_34_164
*1755 FILLER_34_170
*1756 FILLER_34_179
*1757 FILLER_34_189
*1758 FILLER_34_195
*1759 FILLER_34_197
*1760 FILLER_34_214
*1761 FILLER_34_22
*1762 FILLER_34_224
*1763 FILLER_34_234
*1764 FILLER_34_244
*1765 FILLER_34_253
*1766 FILLER_34_261
*1767 FILLER_34_268
*1768 FILLER_34_280
*1769 FILLER_34_29
*1770 FILLER_34_292
*1771 FILLER_34_298
*1772 FILLER_34_3
*1773 FILLER_34_44
*1774 FILLER_34_64
*1775 FILLER_34_76
*1776 FILLER_34_85
*1777 FILLER_34_95
*1778 FILLER_35_10
*1779 FILLER_35_108
*1780 FILLER_35_113
*1781 FILLER_35_130
*1782 FILLER_35_140
*1783 FILLER_35_153
*1784 FILLER_35_166
*1785 FILLER_35_169
*1786 FILLER_35_176
*1787 FILLER_35_184
*1788 FILLER_35_197
*1789 FILLER_35_205
*1790 FILLER_35_214
*1791 FILLER_35_222
*1792 FILLER_35_225
*1793 FILLER_35_233
*1794 FILLER_35_243
*1795 FILLER_35_253
*1796 FILLER_35_272
*1797 FILLER_35_281