*SPEF "ieee 1481-1999"
*DESIGN "onebitcpu"
*DATE "11:11:11 Fri 11 11, 1111"
*VENDOR "OpenRCX"
*PROGRAM "Parallel Extraction"
*VERSION "1.0"
*DESIGN_FLOW "NAME_SCOPE LOCAL" "PIN_CAP NONE"
*DIVIDER /
*DELIMITER :
*BUS_DELIMITER []
*T_UNIT 1 NS
*C_UNIT 1 PF
*R_UNIT 1 OHM
*L_UNIT 1 HENRY

*NAME_MAP
*1 io_in[0]
*2 io_in[1]
*3 io_in[2]
*4 io_in[3]
*5 io_in[4]
*6 io_in[5]
*7 io_in[6]
*8 io_in[7]
*9 io_out[0]
*10 io_out[1]
*11 net29
*12 net30
*13 net31
*14 net32
*15 net33
*16 net34
*19 _0000_
*20 _0001_
*21 _0002_
*22 _0003_
*23 _0004_
*24 _0005_
*25 _0006_
*26 _0007_
*27 _0008_
*28 _0009_
*29 _0010_
*30 _0011_
*31 _0012_
*32 _0013_
*33 _0014_
*34 _0015_
*35 _0016_
*36 _0017_
*37 _0018_
*38 _0019_
*39 _0020_
*40 _0021_
*41 _0022_
*42 _0023_
*43 _0024_
*44 _0025_
*45 _0026_
*46 _0027_
*47 _0028_
*48 _0029_
*49 _0030_
*50 _0031_
*51 _0032_
*52 _0033_
*53 _0034_
*54 _0035_
*55 _0036_
*56 _0037_
*57 _0038_
*58 _0039_
*59 _0040_
*60 _0041_
*61 _0042_
*62 _0043_
*63 _0044_
*64 _0045_
*65 _0046_
*66 _0047_
*67 _0048_
*68 _0049_
*69 _0050_
*70 _0051_
*71 _0052_
*72 _0053_
*73 _0054_
*74 _0055_
*75 _0056_
*76 _0057_
*77 _0058_
*78 _0059_
*79 _0060_
*80 _0061_
*81 _0062_
*82 _0063_
*83 _0064_
*84 _0065_
*85 _0066_
*86 _0067_
*87 _0068_
*88 _0069_
*89 _0070_
*90 _0071_
*91 _0072_
*92 _0073_
*93 _0074_
*94 _0075_
*95 _0076_
*96 _0077_
*97 _0078_
*98 _0079_
*99 _0080_
*100 _0081_
*101 _0082_
*102 _0083_
*103 _0084_
*104 _0085_
*105 _0086_
*106 _0087_
*107 _0088_
*108 _0089_
*109 _0090_
*110 _0091_
*111 _0092_
*112 _0093_
*113 _0094_
*114 _0095_
*115 _0096_
*116 _0097_
*117 _0098_
*118 _0099_
*119 _0100_
*120 _0101_
*121 _0102_
*122 _0103_
*123 _0104_
*124 _0105_
*125 _0106_
*126 _0107_
*127 _0108_
*128 _0109_
*129 _0110_
*130 _0111_
*131 _0112_
*132 _0113_
*133 _0114_
*134 _0115_
*135 _0116_
*136 _0117_
*137 _0118_
*138 _0119_
*139 _0120_
*140 _0121_
*141 _0122_
*142 _0123_
*143 _0124_
*144 _0125_
*145 _0126_
*146 _0127_
*147 _0128_
*148 _0129_
*149 _0130_
*150 _0131_
*151 _0132_
*152 _0133_
*153 _0134_
*154 _0135_
*155 _0136_
*156 _0137_
*157 _0138_
*158 _0139_
*159 _0140_
*160 _0141_
*161 _0142_
*162 _0143_
*163 _0144_
*164 _0145_
*165 _0146_
*166 _0147_
*167 _0148_
*168 _0149_
*169 _0150_
*170 _0151_
*171 _0152_
*172 _0153_
*173 _0154_
*174 _0155_
*175 _0156_
*176 _0157_
*177 _0158_
*178 _0159_
*179 _0160_
*180 _0161_
*181 _0162_
*182 _0163_
*183 _0164_
*184 _0165_
*185 _0166_
*186 _0167_
*187 _0168_
*188 _0169_
*189 _0170_
*190 _0171_
*191 _0172_
*192 _0173_
*193 _0174_
*194 _0175_
*195 _0176_
*196 _0177_
*197 _0178_
*198 _0179_
*199 _0180_
*200 _0181_
*201 _0182_
*202 _0183_
*203 _0184_
*204 _0185_
*205 _0186_
*206 _0187_
*207 _0188_
*208 _0189_
*209 _0190_
*210 _0191_
*211 _0192_
*212 _0193_
*213 _0194_
*214 _0195_
*215 _0196_
*216 _0197_
*217 _0198_
*218 _0199_
*219 _0200_
*220 _0201_
*221 _0202_
*222 _0203_
*223 _0204_
*224 _0205_
*225 _0206_
*226 _0207_
*227 _0208_
*228 _0209_
*229 _0210_
*230 _0211_
*231 _0212_
*232 _0213_
*233 _0214_
*234 _0215_
*235 _0216_
*236 _0217_
*237 _0218_
*238 _0219_
*239 _0220_
*240 _0221_
*241 _0222_
*242 _0223_
*243 _0224_
*244 _0225_
*245 _0226_
*246 _0227_
*247 _0228_
*248 _0229_
*249 _0230_
*250 _0231_
*251 _0232_
*252 _0233_
*253 _0234_
*254 _0235_
*255 _0236_
*256 _0237_
*257 _0238_
*258 _0239_
*259 _0240_
*260 _0241_
*261 _0242_
*262 _0243_
*263 _0244_
*264 _0245_
*265 _0246_
*266 _0247_
*267 _0248_
*268 _0249_
*269 _0250_
*270 _0251_
*271 _0252_
*272 _0253_
*273 _0254_
*274 _0255_
*275 _0256_
*276 _0257_
*277 _0258_
*278 _0259_
*279 _0260_
*280 _0261_
*281 _0262_
*282 _0263_
*283 _0264_
*284 _0265_
*285 _0266_
*286 _0267_
*287 _0268_
*288 _0269_
*289 _0270_
*290 _0271_
*291 _0272_
*292 _0273_
*293 _0274_
*294 _0275_
*295 _0276_
*296 _0277_
*297 _0278_
*298 _0279_
*299 _0280_
*300 _0281_
*301 _0282_
*302 _0283_
*303 _0284_
*304 _0285_
*305 _0286_
*306 _0287_
*307 _0288_
*308 _0289_
*309 _0290_
*310 _0291_
*311 _0292_
*312 _0293_
*313 _0294_
*314 _0295_
*315 _0296_
*316 _0297_
*317 _0298_
*318 _0299_
*319 _0300_
*320 _0301_
*321 _0302_
*322 _0303_
*323 _0304_
*324 _0305_
*325 _0306_
*326 _0307_
*327 _0308_
*328 _0309_
*329 _0310_
*330 _0311_
*331 _0312_
*332 _0313_
*333 _0314_
*334 _0315_
*335 _0316_
*336 _0317_
*337 _0318_
*338 _0319_
*339 _0320_
*340 _0321_
*341 _0322_
*342 _0323_
*343 _0324_
*344 _0325_
*345 _0326_
*346 _0327_
*347 _0328_
*348 _0329_
*349 _0330_
*350 _0331_
*351 _0332_
*352 _0333_
*353 _0334_
*354 _0335_
*355 _0336_
*356 _0337_
*357 _0338_
*358 _0339_
*359 _0340_
*360 _0341_
*361 _0342_
*362 _0343_
*363 _0344_
*364 _0345_
*365 _0346_
*366 _0347_
*367 _0348_
*368 _0349_
*369 _0350_
*370 _0351_
*371 _0352_
*372 _0353_
*373 _0354_
*374 _0355_
*375 _0356_
*376 _0357_
*377 _0358_
*378 _0359_
*379 _0360_
*380 _0361_
*381 _0362_
*382 _0363_
*383 _0364_
*384 _0365_
*385 _0366_
*386 _0367_
*387 _0368_
*388 _0369_
*389 _0370_
*390 _0371_
*391 _0372_
*392 _0373_
*393 _0374_
*394 _0375_
*395 _0376_
*396 _0377_
*397 _0378_
*398 _0379_
*399 _0380_
*400 _0381_
*401 _0382_
*402 _0383_
*403 _0384_
*404 _0385_
*405 _0386_
*406 _0387_
*407 _0388_
*408 _0389_
*409 _0390_
*410 _0391_
*411 _0392_
*412 _0393_
*413 _0394_
*414 _0395_
*415 _0396_
*416 _0397_
*417 _0398_
*418 _0399_
*419 _0400_
*420 _0401_
*421 _0402_
*422 _0403_
*423 _0404_
*424 _0405_
*425 _0406_
*426 _0407_
*427 _0408_
*428 _0409_
*429 _0410_
*430 _0411_
*431 _0412_
*432 _0413_
*433 _0414_
*434 _0415_
*435 _0416_
*436 _0417_
*437 _0418_
*438 _0419_
*439 _0420_
*440 _0421_
*441 _0422_
*442 _0423_
*443 _0424_
*444 _0425_
*445 _0426_
*446 _0427_
*447 _0428_
*448 _0429_
*449 _0430_
*450 _0431_
*451 _0432_
*452 _0433_
*453 _0434_
*454 _0435_
*455 _0436_
*456 _0437_
*457 _0438_
*458 _0439_
*459 _0440_
*460 _0441_
*461 _0442_
*462 _0443_
*463 _0444_
*464 _0445_
*465 _0446_
*466 _0447_
*467 _0448_
*468 _0449_
*469 _0450_
*470 _0451_
*471 _0452_
*472 _0453_
*473 _0454_
*474 _0455_
*475 _0456_
*476 _0457_
*477 _0458_
*478 _0459_
*479 _0460_
*480 _0461_
*481 _0462_
*482 _0463_
*483 _0464_
*484 _0465_
*485 _0466_
*486 _0467_
*487 _0468_
*488 _0469_
*489 _0470_
*490 _0471_
*491 _0472_
*492 _0473_
*493 _0474_
*494 _0475_
*495 _0476_
*496 _0477_
*497 _0478_
*498 _0479_
*499 _0480_
*500 _0481_
*501 _0482_
*502 _0483_
*503 _0484_
*504 _0485_
*505 _0486_
*506 _0487_
*507 _0488_
*508 _0489_
*509 _0490_
*510 _0491_
*511 _0492_
*512 _0493_
*513 _0494_
*514 _0495_
*515 _0496_
*516 _0497_
*517 _0498_
*518 _0499_
*519 _0500_
*520 _0501_
*521 _0502_
*522 _0503_
*523 _0504_
*524 _0505_
*525 clknet_0_io_in[0]
*526 clknet_1_0__leaf_io_in[0]
*527 clknet_1_1__leaf_io_in[0]
*528 net1
*529 net10
*530 net11
*531 net12
*532 net13
*533 net14
*534 net15
*535 net16
*536 net17
*537 net18
*538 net19
*539 net2
*540 net20
*541 net21
*542 net22
*543 net23
*544 net24
*545 net25
*546 net26
*547 net27
*548 net28
*549 net3
*550 net35
*551 net36
*552 net4
*553 net5
*554 net6
*555 net7
*556 net8
*557 net9
*558 pgm_shiftreg\.Q\[0\]
*559 pgm_shiftreg\.Q\[10\]
*560 pgm_shiftreg\.Q\[11\]
*561 pgm_shiftreg\.Q\[1\]
*562 pgm_shiftreg\.Q\[2\]
*563 pgm_shiftreg\.Q\[3\]
*564 pgm_shiftreg\.Q\[4\]
*565 pgm_shiftreg\.Q\[5\]
*566 pgm_shiftreg\.Q\[6\]
*567 pgm_shiftreg\.Q\[7\]
*568 pgm_shiftreg\.Q\[8\]
*569 pgm_shiftreg\.Q\[9\]
*570 reg_estado\.D\[0\]
*571 reg_estado\.D\[1\]
*572 reg_estado\.D\[2\]
*573 reg_estado\.D\[3\]
*574 reg_estado\.D\[4\]
*575 reg_estado\.Q\[0\]
*576 reg_estado\.Q\[1\]
*577 reg_estado\.Q\[2\]
*578 reg_estado\.Q\[3\]
*579 reg_estado\.Q\[4\]
*580 run_memory\.memory_ram\[0\]\[0\]
*581 run_memory\.memory_ram\[0\]\[1\]
*582 run_memory\.memory_ram\[0\]\[2\]
*583 run_memory\.memory_ram\[0\]\[3\]
*584 run_memory\.memory_ram\[0\]\[4\]
*585 run_memory\.memory_ram\[10\]\[0\]
*586 run_memory\.memory_ram\[10\]\[1\]
*587 run_memory\.memory_ram\[10\]\[2\]
*588 run_memory\.memory_ram\[10\]\[3\]
*589 run_memory\.memory_ram\[10\]\[4\]
*590 run_memory\.memory_ram\[11\]\[0\]
*591 run_memory\.memory_ram\[11\]\[1\]
*592 run_memory\.memory_ram\[11\]\[2\]
*593 run_memory\.memory_ram\[11\]\[3\]
*594 run_memory\.memory_ram\[11\]\[4\]
*595 run_memory\.memory_ram\[12\]\[0\]
*596 run_memory\.memory_ram\[12\]\[1\]
*597 run_memory\.memory_ram\[12\]\[2\]
*598 run_memory\.memory_ram\[12\]\[3\]
*599 run_memory\.memory_ram\[12\]\[4\]
*600 run_memory\.memory_ram\[13\]\[0\]
*601 run_memory\.memory_ram\[13\]\[1\]
*602 run_memory\.memory_ram\[13\]\[2\]
*603 run_memory\.memory_ram\[13\]\[3\]
*604 run_memory\.memory_ram\[13\]\[4\]
*605 run_memory\.memory_ram\[14\]\[0\]
*606 run_memory\.memory_ram\[14\]\[1\]
*607 run_memory\.memory_ram\[14\]\[2\]
*608 run_memory\.memory_ram\[14\]\[3\]
*609 run_memory\.memory_ram\[14\]\[4\]
*610 run_memory\.memory_ram\[15\]\[0\]
*611 run_memory\.memory_ram\[15\]\[1\]
*612 run_memory\.memory_ram\[15\]\[2\]
*613 run_memory\.memory_ram\[15\]\[3\]
*614 run_memory\.memory_ram\[15\]\[4\]
*615 run_memory\.memory_ram\[16\]\[0\]
*616 run_memory\.memory_ram\[16\]\[1\]
*617 run_memory\.memory_ram\[16\]\[2\]
*618 run_memory\.memory_ram\[16\]\[3\]
*619 run_memory\.memory_ram\[16\]\[4\]
*620 run_memory\.memory_ram\[17\]\[0\]
*621 run_memory\.memory_ram\[17\]\[1\]
*622 run_memory\.memory_ram\[17\]\[2\]
*623 run_memory\.memory_ram\[17\]\[3\]
*624 run_memory\.memory_ram\[17\]\[4\]
*625 run_memory\.memory_ram\[18\]\[0\]
*626 run_memory\.memory_ram\[18\]\[1\]
*627 run_memory\.memory_ram\[18\]\[2\]
*628 run_memory\.memory_ram\[18\]\[3\]
*629 run_memory\.memory_ram\[18\]\[4\]
*630 run_memory\.memory_ram\[19\]\[0\]
*631 run_memory\.memory_ram\[19\]\[1\]
*632 run_memory\.memory_ram\[19\]\[2\]
*633 run_memory\.memory_ram\[19\]\[3\]
*634 run_memory\.memory_ram\[19\]\[4\]
*635 run_memory\.memory_ram\[1\]\[0\]
*636 run_memory\.memory_ram\[1\]\[1\]
*637 run_memory\.memory_ram\[1\]\[2\]
*638 run_memory\.memory_ram\[1\]\[3\]
*639 run_memory\.memory_ram\[1\]\[4\]
*640 run_memory\.memory_ram\[20\]\[0\]
*641 run_memory\.memory_ram\[20\]\[1\]
*642 run_memory\.memory_ram\[20\]\[2\]
*643 run_memory\.memory_ram\[20\]\[3\]
*644 run_memory\.memory_ram\[20\]\[4\]
*645 run_memory\.memory_ram\[21\]\[0\]
*646 run_memory\.memory_ram\[21\]\[1\]
*647 run_memory\.memory_ram\[21\]\[2\]
*648 run_memory\.memory_ram\[21\]\[3\]
*649 run_memory\.memory_ram\[21\]\[4\]
*650 run_memory\.memory_ram\[22\]\[0\]
*651 run_memory\.memory_ram\[22\]\[1\]
*652 run_memory\.memory_ram\[22\]\[2\]
*653 run_memory\.memory_ram\[22\]\[3\]
*654 run_memory\.memory_ram\[22\]\[4\]
*655 run_memory\.memory_ram\[23\]\[0\]
*656 run_memory\.memory_ram\[23\]\[1\]
*657 run_memory\.memory_ram\[23\]\[2\]
*658 run_memory\.memory_ram\[23\]\[3\]
*659 run_memory\.memory_ram\[23\]\[4\]
*660 run_memory\.memory_ram\[24\]\[0\]
*661 run_memory\.memory_ram\[24\]\[1\]
*662 run_memory\.memory_ram\[24\]\[2\]
*663 run_memory\.memory_ram\[24\]\[3\]
*664 run_memory\.memory_ram\[24\]\[4\]
*665 run_memory\.memory_ram\[25\]\[0\]
*666 run_memory\.memory_ram\[25\]\[1\]
*667 run_memory\.memory_ram\[25\]\[2\]
*668 run_memory\.memory_ram\[25\]\[3\]
*669 run_memory\.memory_ram\[25\]\[4\]
*670 run_memory\.memory_ram\[26\]\[0\]
*671 run_memory\.memory_ram\[26\]\[1\]
*672 run_memory\.memory_ram\[26\]\[2\]
*673 run_memory\.memory_ram\[26\]\[3\]
*674 run_memory\.memory_ram\[26\]\[4\]
*675 run_memory\.memory_ram\[27\]\[0\]
*676 run_memory\.memory_ram\[27\]\[1\]
*677 run_memory\.memory_ram\[27\]\[2\]
*678 run_memory\.memory_ram\[27\]\[3\]
*679 run_memory\.memory_ram\[27\]\[4\]
*680 run_memory\.memory_ram\[28\]\[0\]
*681 run_memory\.memory_ram\[28\]\[1\]
*682 run_memory\.memory_ram\[28\]\[2\]
*683 run_memory\.memory_ram\[28\]\[3\]
*684 run_memory\.memory_ram\[28\]\[4\]
*685 run_memory\.memory_ram\[29\]\[0\]
*686 run_memory\.memory_ram\[29\]\[1\]
*687 run_memory\.memory_ram\[29\]\[2\]
*688 run_memory\.memory_ram\[29\]\[3\]
*689 run_memory\.memory_ram\[29\]\[4\]
*690 run_memory\.memory_ram\[2\]\[0\]
*691 run_memory\.memory_ram\[2\]\[1\]
*692 run_memory\.memory_ram\[2\]\[2\]
*693 run_memory\.memory_ram\[2\]\[3\]
*694 run_memory\.memory_ram\[2\]\[4\]
*695 run_memory\.memory_ram\[30\]\[0\]
*696 run_memory\.memory_ram\[30\]\[1\]
*697 run_memory\.memory_ram\[30\]\[2\]
*698 run_memory\.memory_ram\[30\]\[3\]
*699 run_memory\.memory_ram\[30\]\[4\]
*700 run_memory\.memory_ram\[31\]\[0\]
*701 run_memory\.memory_ram\[31\]\[1\]
*702 run_memory\.memory_ram\[31\]\[2\]
*703 run_memory\.memory_ram\[31\]\[3\]
*704 run_memory\.memory_ram\[31\]\[4\]
*705 run_memory\.memory_ram\[3\]\[0\]
*706 run_memory\.memory_ram\[3\]\[1\]
*707 run_memory\.memory_ram\[3\]\[2\]
*708 run_memory\.memory_ram\[3\]\[3\]
*709 run_memory\.memory_ram\[3\]\[4\]
*710 run_memory\.memory_ram\[4\]\[0\]
*711 run_memory\.memory_ram\[4\]\[1\]
*712 run_memory\.memory_ram\[4\]\[2\]
*713 run_memory\.memory_ram\[4\]\[3\]
*714 run_memory\.memory_ram\[4\]\[4\]
*715 run_memory\.memory_ram\[5\]\[0\]
*716 run_memory\.memory_ram\[5\]\[1\]
*717 run_memory\.memory_ram\[5\]\[2\]
*718 run_memory\.memory_ram\[5\]\[3\]
*719 run_memory\.memory_ram\[5\]\[4\]
*720 run_memory\.memory_ram\[6\]\[0\]
*721 run_memory\.memory_ram\[6\]\[1\]
*722 run_memory\.memory_ram\[6\]\[2\]
*723 run_memory\.memory_ram\[6\]\[3\]
*724 run_memory\.memory_ram\[6\]\[4\]
*725 run_memory\.memory_ram\[7\]\[0\]
*726 run_memory\.memory_ram\[7\]\[1\]
*727 run_memory\.memory_ram\[7\]\[2\]
*728 run_memory\.memory_ram\[7\]\[3\]
*729 run_memory\.memory_ram\[7\]\[4\]
*730 run_memory\.memory_ram\[8\]\[0\]
*731 run_memory\.memory_ram\[8\]\[1\]
*732 run_memory\.memory_ram\[8\]\[2\]
*733 run_memory\.memory_ram\[8\]\[3\]
*734 run_memory\.memory_ram\[8\]\[4\]
*735 run_memory\.memory_ram\[9\]\[0\]
*736 run_memory\.memory_ram\[9\]\[1\]
*737 run_memory\.memory_ram\[9\]\[2\]
*738 run_memory\.memory_ram\[9\]\[3\]
*739 run_memory\.memory_ram\[9\]\[4\]
*740 ANTENNA_1
*741 ANTENNA_2
*742 FILLER_0_110
*743 FILLER_0_113
*744 FILLER_0_118
*745 FILLER_0_131
*746 FILLER_0_138
*747 FILLER_0_141
*748 FILLER_0_148
*749 FILLER_0_161
*750 FILLER_0_167
*751 FILLER_0_169
*752 FILLER_0_178
*753 FILLER_0_191
*754 FILLER_0_195
*755 FILLER_0_197
*756 FILLER_0_208
*757 FILLER_0_215
*758 FILLER_0_222
*759 FILLER_0_225
*760 FILLER_0_230
*761 FILLER_0_237
*762 FILLER_0_249
*763 FILLER_0_253
*764 FILLER_0_26
*765 FILLER_0_265
*766 FILLER_0_277
*767 FILLER_0_281
*768 FILLER_0_29
*769 FILLER_0_293
*770 FILLER_0_3
*771 FILLER_0_34
*772 FILLER_0_41
*773 FILLER_0_54
*774 FILLER_0_57
*775 FILLER_0_69
*776 FILLER_0_8
*777 FILLER_0_82
*778 FILLER_0_85
*779 FILLER_0_90
*780 FILLER_0_97
*781 FILLER_10_105
*782 FILLER_10_130
*783 FILLER_10_138
*784 FILLER_10_141
*785 FILLER_10_152
*786 FILLER_10_159
*787 FILLER_10_163
*788 FILLER_10_180
*789 FILLER_10_19
*790 FILLER_10_193
*791 FILLER_10_197
*792 FILLER_10_221
*793 FILLER_10_233
*794 FILLER_10_245
*795 FILLER_10_251
*796 FILLER_10_253
*797 FILLER_10_26
*798 FILLER_10_265
*799 FILLER_10_277
*800 FILLER_10_289
*801 FILLER_10_29
*802 FILLER_10_297
*803 FILLER_10_3
*804 FILLER_10_37
*805 FILLER_10_43
*806 FILLER_10_50
*807 FILLER_10_63
*808 FILLER_10_78
*809 FILLER_10_85
*810 FILLER_10_9
*811 FILLER_11_102
*812 FILLER_11_110
*813 FILLER_11_113
*814 FILLER_11_133
*815 FILLER_11_141
*816 FILLER_11_158
*817 FILLER_11_162
*818 FILLER_11_166
*819 FILLER_11_169
*820 FILLER_11_181
*821 FILLER_11_210
*822 FILLER_11_217
*823 FILLER_11_223
*824 FILLER_11_225
*825 FILLER_11_237
*826 FILLER_11_249
*827 FILLER_11_261
*828 FILLER_11_273
*829 FILLER_11_279
*830 FILLER_11_281
*831 FILLER_11_29
*832 FILLER_11_293
*833 FILLER_11_3
*834 FILLER_11_53
*835 FILLER_11_57
*836 FILLER_11_62
*837 FILLER_11_82
*838 FILLER_11_95
*839 FILLER_12_103
*840 FILLER_12_118
*841 FILLER_12_138
*842 FILLER_12_141
*843 FILLER_12_154
*844 FILLER_12_179
*845 FILLER_12_192
*846 FILLER_12_197
*847 FILLER_12_212
*848 FILLER_12_224
*849 FILLER_12_236
*850 FILLER_12_248
*851 FILLER_12_25
*852 FILLER_12_253
*853 FILLER_12_265
*854 FILLER_12_277
*855 FILLER_12_289
*856 FILLER_12_29
*857 FILLER_12_297
*858 FILLER_12_3
*859 FILLER_12_52
*860 FILLER_12_76
*861 FILLER_12_85
*862 FILLER_13_105
*863 FILLER_13_11
*864 FILLER_13_110
*865 FILLER_13_113
*866 FILLER_13_131
*867 FILLER_13_144
*868 FILLER_13_151
*869 FILLER_13_158
*870 FILLER_13_165
*871 FILLER_13_169
*872 FILLER_13_17
*873 FILLER_13_180
*874 FILLER_13_187
*875 FILLER_13_195
*876 FILLER_13_207
*877 FILLER_13_219
*878 FILLER_13_223
*879 FILLER_13_225
*880 FILLER_13_237
*881 FILLER_13_249
*882 FILLER_13_26
*883 FILLER_13_261
*884 FILLER_13_273
*885 FILLER_13_279
*886 FILLER_13_281
*887 FILLER_13_293
*888 FILLER_13_3
*889 FILLER_13_30
*890 FILLER_13_39
*891 FILLER_13_47
*892 FILLER_13_52
*893 FILLER_13_57
*894 FILLER_13_75
*895 FILLER_13_81
*896 FILLER_13_86
*897 FILLER_13_99
*898 FILLER_14_107
*899 FILLER_14_127
*900 FILLER_14_136
*901 FILLER_14_141
*902 FILLER_14_147
*903 FILLER_14_151
*904 FILLER_14_164
*905 FILLER_14_176
*906 FILLER_14_193
*907 FILLER_14_197
*908 FILLER_14_219
*909 FILLER_14_231
*910 FILLER_14_243
*911 FILLER_14_251
*912 FILLER_14_253
*913 FILLER_14_26
*914 FILLER_14_265
*915 FILLER_14_277
*916 FILLER_14_289
*917 FILLER_14_29
*918 FILLER_14_297
*919 FILLER_14_3
*920 FILLER_14_36
*921 FILLER_14_61
*922 FILLER_14_69
*923 FILLER_14_82
*924 FILLER_14_85
*925 FILLER_14_91
*926 FILLER_14_95
*927 FILLER_14_99
*928 FILLER_15_106
*929 FILLER_15_113
*930 FILLER_15_120
*931 FILLER_15_124
*932 FILLER_15_146
*933 FILLER_15_166
*934 FILLER_15_169
*935 FILLER_15_179
*936 FILLER_15_192
*937 FILLER_15_196
*938 FILLER_15_200
*939 FILLER_15_213
*940 FILLER_15_221
*941 FILLER_15_225
*942 FILLER_15_237
*943 FILLER_15_249
*944 FILLER_15_261
*945 FILLER_15_273
*946 FILLER_15_279
*947 FILLER_15_281
*948 FILLER_15_293
*949 FILLER_15_3
*950 FILLER_15_35
*951 FILLER_15_44
*952 FILLER_15_50
*953 FILLER_15_54
*954 FILLER_15_57
*955 FILLER_15_8
*956 FILLER_15_81
*957 FILLER_16_107
*958 FILLER_16_115
*959 FILLER_16_125
*960 FILLER_16_138
*961 FILLER_16_14
*962 FILLER_16_141
*963 FILLER_16_152
*964 FILLER_16_161
*965 FILLER_16_168
*966 FILLER_16_181
*967 FILLER_16_190
*968 FILLER_16_197
*969 FILLER_16_20
*970 FILLER_16_205
*971 FILLER_16_223
*972 FILLER_16_235
*973 FILLER_16_247
*974 FILLER_16_251
*975 FILLER_16_253
*976 FILLER_16_26
*977 FILLER_16_265
*978 FILLER_16_277
*979 FILLER_16_289
*980 FILLER_16_29
*981 FILLER_16_297
*982 FILLER_16_3
*983 FILLER_16_52
*984 FILLER_16_56
*985 FILLER_16_66
*986 FILLER_16_7
*987 FILLER_16_76
*988 FILLER_16_85
*989 FILLER_17_104
*990 FILLER_17_113
*991 FILLER_17_122
*992 FILLER_17_130
*993 FILLER_17_147
*994 FILLER_17_154
*995 FILLER_17_163
*996 FILLER_17_167
*997 FILLER_17_169
*998 FILLER_17_187
*999 FILLER_17_21
*1000 FILLER_17_212
*1001 FILLER_17_219
*1002 FILLER_17_223
*1003 FILLER_17_225
*1004 FILLER_17_237
*1005 FILLER_17_249
*1006 FILLER_17_261
*1007 FILLER_17_273
*1008 FILLER_17_279
*1009 FILLER_17_281
*1010 FILLER_17_29
*1011 FILLER_17_293
*1012 FILLER_17_3
*1013 FILLER_17_38
*1014 FILLER_17_49
*1015 FILLER_17_55
*1016 FILLER_17_57
*1017 FILLER_17_68
*1018 FILLER_17_90
*1019 FILLER_17_94
*1020 FILLER_18_103
*1021 FILLER_18_113
*1022 FILLER_18_117
*1023 FILLER_18_123
*1024 FILLER_18_132
*1025 FILLER_18_141
*1026 FILLER_18_152
*1027 FILLER_18_161
*1028 FILLER_18_170
*1029 FILLER_18_178
*1030 FILLER_18_184
*1031 FILLER_18_194
*1032 FILLER_18_197
*1033 FILLER_18_210
*1034 FILLER_18_223
*1035 FILLER_18_235
*1036 FILLER_18_247
*1037 FILLER_18_251
*1038 FILLER_18_253
*1039 FILLER_18_26
*1040 FILLER_18_265
*1041 FILLER_18_277
*1042 FILLER_18_289
*1043 FILLER_18_29
*1044 FILLER_18_297
*1045 FILLER_18_3
*1046 FILLER_18_37
*1047 FILLER_18_43
*1048 FILLER_18_52
*1049 FILLER_18_66
*1050 FILLER_18_72
*1051 FILLER_18_82
*1052 FILLER_18_85
*1053 FILLER_18_9
*1054 FILLER_18_90
*1055 FILLER_19_107
*1056 FILLER_19_111
*1057 FILLER_19_113
*1058 FILLER_19_12
*1059 FILLER_19_126
*1060 FILLER_19_141
*1061 FILLER_19_145
*1062 FILLER_19_155
*1063 FILLER_19_164
*1064 FILLER_19_169
*1065 FILLER_19_181
*1066 FILLER_19_201
*1067 FILLER_19_214
*1068 FILLER_19_222
*1069 FILLER_19_225
*1070 FILLER_19_237
*1071 FILLER_19_24
*1072 FILLER_19_249
*1073 FILLER_19_261
*1074 FILLER_19_273
*1075 FILLER_19_279
*1076 FILLER_19_281
*1077 FILLER_19_293
*1078 FILLER_19_3
*1079 FILLER_19_35
*1080 FILLER_19_46
*1081 FILLER_19_50
*1082 FILLER_19_54
*1083 FILLER_19_57
*1084 FILLER_19_68
*1085 FILLER_19_78
*1086 FILLER_19_87
*1087 FILLER_1_110
*1088 FILLER_1_113
*1089 FILLER_1_137
*1090 FILLER_1_14
*1091 FILLER_1_161
*1092 FILLER_1_167
*1093 FILLER_1_169
*1094 FILLER_1_191
*1095 FILLER_1_211
*1096 FILLER_1_218
*1097 FILLER_1_225
*1098 FILLER_1_230
*1099 FILLER_1_237
*1100 FILLER_1_249
*1101 FILLER_1_261
*1102 FILLER_1_273
*1103 FILLER_1_279
*1104 FILLER_1_281
*1105 FILLER_1_293
*1106 FILLER_1_3
*1107 FILLER_1_34
*1108 FILLER_1_54
*1109 FILLER_1_57
*1110 FILLER_1_62
*1111 FILLER_1_70
*1112 FILLER_1_87
*1113 FILLER_1_93
*1114 FILLER_20_118
*1115 FILLER_20_138
*1116 FILLER_20_141
*1117 FILLER_20_15
*1118 FILLER_20_159
*1119 FILLER_20_167
*1120 FILLER_20_184
*1121 FILLER_20_191
*1122 FILLER_20_195
*1123 FILLER_20_197
*1124 FILLER_20_202
*1125 FILLER_20_222
*1126 FILLER_20_234
*1127 FILLER_20_246
*1128 FILLER_20_253
*1129 FILLER_20_26
*1130 FILLER_20_265
*1131 FILLER_20_277
*1132 FILLER_20_289
*1133 FILLER_20_29
*1134 FILLER_20_297
*1135 FILLER_20_3
*1136 FILLER_20_37
*1137 FILLER_20_45
*1138 FILLER_20_55
*1139 FILLER_20_75
*1140 FILLER_20_82
*1141 FILLER_20_85
*1142 FILLER_20_96
*1143 FILLER_21_110
*1144 FILLER_21_113
*1145 FILLER_21_124
*1146 FILLER_21_130
*1147 FILLER_21_134
*1148 FILLER_21_141
*1149 FILLER_21_166
*1150 FILLER_21_169
*1151 FILLER_21_178
*1152 FILLER_21_203
*1153 FILLER_21_21
*1154 FILLER_21_216
*1155 FILLER_21_225
*1156 FILLER_21_237
*1157 FILLER_21_249
*1158 FILLER_21_25
*1159 FILLER_21_261
*1160 FILLER_21_273
*1161 FILLER_21_279
*1162 FILLER_21_281
*1163 FILLER_21_293
*1164 FILLER_21_3
*1165 FILLER_21_31
*1166 FILLER_21_40
*1167 FILLER_21_53
*1168 FILLER_21_57
*1169 FILLER_21_63
*1170 FILLER_21_70
*1171 FILLER_21_90
*1172 FILLER_21_99
*1173 FILLER_22_109
*1174 FILLER_22_129
*1175 FILLER_22_137
*1176 FILLER_22_141
*1177 FILLER_22_145
*1178 FILLER_22_149
*1179 FILLER_22_157
*1180 FILLER_22_168
*1181 FILLER_22_188
*1182 FILLER_22_197
*1183 FILLER_22_219
*1184 FILLER_22_231
*1185 FILLER_22_243
*1186 FILLER_22_251
*1187 FILLER_22_253
*1188 FILLER_22_26
*1189 FILLER_22_265
*1190 FILLER_22_277
*1191 FILLER_22_289
*1192 FILLER_22_29
*1193 FILLER_22_297
*1194 FILLER_22_3
*1195 FILLER_22_38
*1196 FILLER_22_58
*1197 FILLER_22_62
*1198 FILLER_22_72
*1199 FILLER_22_81
*1200 FILLER_22_85
*1201 FILLER_22_9
*1202 FILLER_23_110
*1203 FILLER_23_113
*1204 FILLER_23_120
*1205 FILLER_23_14
*1206 FILLER_23_145
*1207 FILLER_23_165
*1208 FILLER_23_169
*1209 FILLER_23_193
*1210 FILLER_23_200
*1211 FILLER_23_213
*1212 FILLER_23_221
*1213 FILLER_23_225
*1214 FILLER_23_237
*1215 FILLER_23_249
*1216 FILLER_23_261
*1217 FILLER_23_273
*1218 FILLER_23_279
*1219 FILLER_23_281
*1220 FILLER_23_293
*1221 FILLER_23_3
*1222 FILLER_23_39
*1223 FILLER_23_52
*1224 FILLER_23_57
*1225 FILLER_23_75
*1226 FILLER_23_90
*1227 FILLER_24_104
*1228 FILLER_24_124
*1229 FILLER_24_128
*1230 FILLER_24_138
*1231 FILLER_24_141
*1232 FILLER_24_156
*1233 FILLER_24_176
*1234 FILLER_24_191
*1235 FILLER_24_195
*1236 FILLER_24_197
*1237 FILLER_24_203
*1238 FILLER_24_21
*1239 FILLER_24_220
*1240 FILLER_24_232
*1241 FILLER_24_244
*1242 FILLER_24_253
*1243 FILLER_24_265
*1244 FILLER_24_27
*1245 FILLER_24_277
*1246 FILLER_24_289
*1247 FILLER_24_29
*1248 FILLER_24_297
*1249 FILLER_24_3
*1250 FILLER_24_40
*1251 FILLER_24_47
*1252 FILLER_24_57
*1253 FILLER_24_82
*1254 FILLER_24_85
*1255 FILLER_24_91
*1256 FILLER_25_100
*1257 FILLER_25_110
*1258 FILLER_25_113
*1259 FILLER_25_118
*1260 FILLER_25_122
*1261 FILLER_25_139
*1262 FILLER_25_15
*1263 FILLER_25_159
*1264 FILLER_25_166
*1265 FILLER_25_169
*1266 FILLER_25_180
*1267 FILLER_25_188
*1268 FILLER_25_210
*1269 FILLER_25_217
*1270 FILLER_25_223
*1271 FILLER_25_225
*1272 FILLER_25_237
*1273 FILLER_25_249
*1274 FILLER_25_261
*1275 FILLER_25_273
*1276 FILLER_25_279
*1277 FILLER_25_281
*1278 FILLER_25_293
*1279 FILLER_25_3
*1280 FILLER_25_37
*1281 FILLER_25_48
*1282 FILLER_25_57
*1283 FILLER_25_68
*1284 FILLER_25_72
*1285 FILLER_25_82
*1286 FILLER_25_92
*1287 FILLER_26_104
*1288 FILLER_26_116
*1289 FILLER_26_124
*1290 FILLER_26_129
*1291 FILLER_26_138
*1292 FILLER_26_141
*1293 FILLER_26_148
*1294 FILLER_26_154
*1295 FILLER_26_176
*1296 FILLER_26_183
*1297 FILLER_26_195
*1298 FILLER_26_197
*1299 FILLER_26_20
*1300 FILLER_26_208
*1301 FILLER_26_220
*1302 FILLER_26_232
*1303 FILLER_26_244
*1304 FILLER_26_253
*1305 FILLER_26_265
*1306 FILLER_26_277
*1307 FILLER_26_289
*1308 FILLER_26_29
*1309 FILLER_26_297
*1310 FILLER_26_3
*1311 FILLER_26_40
*1312 FILLER_26_62
*1313 FILLER_26_82
*1314 FILLER_26_85
*1315 FILLER_26_97
*1316 FILLER_27_106
*1317 FILLER_27_113
*1318 FILLER_27_118
*1319 FILLER_27_122
*1320 FILLER_27_128
*1321 FILLER_27_137
*1322 FILLER_27_146
*1323 FILLER_27_159
*1324 FILLER_27_166
*1325 FILLER_27_169
*1326 FILLER_27_181
*1327 FILLER_27_201
*1328 FILLER_27_213
*1329 FILLER_27_22
*1330 FILLER_27_221
*1331 FILLER_27_225
*1332 FILLER_27_237
*1333 FILLER_27_249
*1334 FILLER_27_261
*1335 FILLER_27_273
*1336 FILLER_27_279
*1337 FILLER_27_281
*1338 FILLER_27_293
*1339 FILLER_27_3
*1340 FILLER_27_32
*1341 FILLER_27_41
*1342 FILLER_27_54
*1343 FILLER_27_57
*1344 FILLER_27_63
*1345 FILLER_27_72
*1346 FILLER_27_79
*1347 FILLER_27_86
*1348 FILLER_27_9
*1349 FILLER_28_113
*1350 FILLER_28_138
*1351 FILLER_28_141
*1352 FILLER_28_148
*1353 FILLER_28_154
*1354 FILLER_28_164
*1355 FILLER_28_184
*1356 FILLER_28_191
*1357 FILLER_28_195
*1358 FILLER_28_197
*1359 FILLER_28_209
*1360 FILLER_28_21
*1361 FILLER_28_221
*1362 FILLER_28_233
*1363 FILLER_28_245
*1364 FILLER_28_251
*1365 FILLER_28_253
*1366 FILLER_28_265
*1367 FILLER_28_27
*1368 FILLER_28_277
*1369 FILLER_28_289
*1370 FILLER_28_29
*1371 FILLER_28_297
*1372 FILLER_28_3
*1373 FILLER_28_42
*1374 FILLER_28_62
*1375 FILLER_28_69
*1376 FILLER_28_82
*1377 FILLER_28_85
*1378 FILLER_28_93
*1379 FILLER_29_103
*1380 FILLER_29_110
*1381 FILLER_29_113
*1382 FILLER_29_119
*1383 FILLER_29_128
*1384 FILLER_29_134
*1385 FILLER_29_143
*1386 FILLER_29_147
*1387 FILLER_29_155
*1388 FILLER_29_167
*1389 FILLER_29_169
*1390 FILLER_29_17
*1391 FILLER_29_181
*1392 FILLER_29_185
*1393 FILLER_29_195
*1394 FILLER_29_207
*1395 FILLER_29_21
*1396 FILLER_29_219
*1397 FILLER_29_223
*1398 FILLER_29_225
*1399 FILLER_29_237
*1400 FILLER_29_249
*1401 FILLER_29_261
*1402 FILLER_29_273
*1403 FILLER_29_279
*1404 FILLER_29_281
*1405 FILLER_29_293
*1406 FILLER_29_3
*1407 FILLER_29_43
*1408 FILLER_29_47
*1409 FILLER_29_51
*1410 FILLER_29_55
*1411 FILLER_29_57
*1412 FILLER_29_61
*1413 FILLER_29_83
*1414 FILLER_29_9
*1415 FILLER_2_103
*1416 FILLER_2_125
*1417 FILLER_2_138
*1418 FILLER_2_141
*1419 FILLER_2_148
*1420 FILLER_2_168
*1421 FILLER_2_188
*1422 FILLER_2_197
*1423 FILLER_2_202
*1424 FILLER_2_209
*1425 FILLER_2_21
*1426 FILLER_2_216
*1427 FILLER_2_223
*1428 FILLER_2_235
*1429 FILLER_2_247
*1430 FILLER_2_251
*1431 FILLER_2_253
*1432 FILLER_2_265
*1433 FILLER_2_27
*1434 FILLER_2_277
*1435 FILLER_2_289
*1436 FILLER_2_29
*1437 FILLER_2_297
*1438 FILLER_2_3
*1439 FILLER_2_46
*1440 FILLER_2_53
*1441 FILLER_2_73
*1442 FILLER_2_82
*1443 FILLER_2_85
*1444 FILLER_30_101
*1445 FILLER_30_107
*1446 FILLER_30_114
*1447 FILLER_30_128
*1448 FILLER_30_138
*1449 FILLER_30_141
*1450 FILLER_30_153
*1451 FILLER_30_163
*1452 FILLER_30_183
*1453 FILLER_30_195
*1454 FILLER_30_197
*1455 FILLER_30_209
*1456 FILLER_30_21
*1457 FILLER_30_221
*1458 FILLER_30_233
*1459 FILLER_30_245
*1460 FILLER_30_251
*1461 FILLER_30_253
*1462 FILLER_30_265
*1463 FILLER_30_27
*1464 FILLER_30_277
*1465 FILLER_30_289
*1466 FILLER_30_29
*1467 FILLER_30_297
*1468 FILLER_30_3
*1469 FILLER_30_47
*1470 FILLER_30_55
*1471 FILLER_30_65
*1472 FILLER_30_72
*1473 FILLER_30_76
*1474 FILLER_30_82
*1475 FILLER_30_85
*1476 FILLER_30_91
*1477 FILLER_31_110
*1478 FILLER_31_113
*1479 FILLER_31_135
*1480 FILLER_31_149
*1481 FILLER_31_159
*1482 FILLER_31_166
*1483 FILLER_31_169
*1484 FILLER_31_181
*1485 FILLER_31_19
*1486 FILLER_31_205
*1487 FILLER_31_217
*1488 FILLER_31_223
*1489 FILLER_31_225
*1490 FILLER_31_237
*1491 FILLER_31_249
*1492 FILLER_31_261
*1493 FILLER_31_273
*1494 FILLER_31_279
*1495 FILLER_31_281
*1496 FILLER_31_293
*1497 FILLER_31_3
*1498 FILLER_31_39
*1499 FILLER_31_54
*1500 FILLER_31_57
*1501 FILLER_31_72
*1502 FILLER_31_81
*1503 FILLER_31_9
*1504 FILLER_31_90
*1505 FILLER_32_109
*1506 FILLER_32_11
*1507 FILLER_32_117
*1508 FILLER_32_125
*1509 FILLER_32_131
*1510 FILLER_32_138
*1511 FILLER_32_141
*1512 FILLER_32_149
*1513 FILLER_32_153
*1514 FILLER_32_160
*1515 FILLER_32_164
*1516 FILLER_32_169
*1517 FILLER_32_19
*1518 FILLER_32_194
*1519 FILLER_32_197
*1520 FILLER_32_202
*1521 FILLER_32_214
*1522 FILLER_32_226
*1523 FILLER_32_238
*1524 FILLER_32_250
*1525 FILLER_32_253
*1526 FILLER_32_26
*1527 FILLER_32_265
*1528 FILLER_32_277
*1529 FILLER_32_289
*1530 FILLER_32_29
*1531 FILLER_32_297
*1532 FILLER_32_3
*1533 FILLER_32_35
*1534 FILLER_32_55
*1535 FILLER_32_75
*1536 FILLER_32_82
*1537 FILLER_32_85
*1538 FILLER_32_95
*1539 FILLER_33_101
*1540 FILLER_33_110
*1541 FILLER_33_113
*1542 FILLER_33_121
*1543 FILLER_33_145
*1544 FILLER_33_151
*1545 FILLER_33_158
*1546 FILLER_33_162
*1547 FILLER_33_166
*1548 FILLER_33_169
*1549 FILLER_33_180
*1550 FILLER_33_184
*1551 FILLER_33_194
*1552 FILLER_33_206
*1553 FILLER_33_218
*1554 FILLER_33_225
*1555 FILLER_33_237
*1556 FILLER_33_249
*1557 FILLER_33_25
*1558 FILLER_33_261
*1559 FILLER_33_273
*1560 FILLER_33_279
*1561 FILLER_33_281
*1562 FILLER_33_293
*1563 FILLER_33_3
*1564 FILLER_33_38
*1565 FILLER_33_42
*1566 FILLER_33_46
*1567 FILLER_33_54
*1568 FILLER_33_57
*1569 FILLER_33_68
*1570 FILLER_33_76
*1571 FILLER_33_83
*1572 FILLER_33_95
*1573 FILLER_34_110
*1574 FILLER_34_116
*1575 FILLER_34_133
*1576 FILLER_34_139
*1577 FILLER_34_141
*1578 FILLER_34_147
*1579 FILLER_34_157
*1580 FILLER_34_177
*1581 FILLER_34_189
*1582 FILLER_34_195
*1583 FILLER_34_197
*1584 FILLER_34_21
*1585 FILLER_34_215
*1586 FILLER_34_227
*1587 FILLER_34_239
*1588 FILLER_34_251
*1589 FILLER_34_253
*1590 FILLER_34_265
*1591 FILLER_34_27