*SPEF "ieee 1481-1999"
*DESIGN "option23ser"
*DATE "11:11:11 Fri 11 11, 1111"
*VENDOR "OpenRCX"
*PROGRAM "Parallel Extraction"
*VERSION "1.0"
*DESIGN_FLOW "NAME_SCOPE LOCAL" "PIN_CAP NONE"
*DIVIDER /
*DELIMITER :
*BUS_DELIMITER []
*T_UNIT 1 NS
*C_UNIT 1 PF
*R_UNIT 1 OHM
*L_UNIT 1 HENRY

*NAME_MAP
*1 io_in[0]
*2 io_in[1]
*3 io_in[2]
*4 io_in[3]
*5 io_in[4]
*6 io_in[5]
*7 io_in[6]
*8 io_in[7]
*9 io_out[0]
*10 io_out[1]
*11 io_out[2]
*12 io_out[3]
*13 io_out[4]
*14 io_out[5]
*15 io_out[6]
*16 io_out[7]
*19 _0000_
*20 _0001_
*21 _0002_
*22 _0003_
*23 _0004_
*24 _0005_
*25 _0006_
*26 _0007_
*27 _0008_
*28 _0009_
*29 _0010_
*30 _0011_
*31 _0012_
*32 _0013_
*33 _0014_
*34 _0015_
*35 _0016_
*36 _0017_
*37 _0018_
*38 _0019_
*39 _0020_
*40 _0021_
*41 _0022_
*42 _0023_
*43 _0024_
*44 _0025_
*45 _0026_
*46 _0027_
*47 _0028_
*48 _0029_
*49 _0030_
*50 _0031_
*51 _0032_
*52 _0033_
*53 _0034_
*54 _0035_
*55 _0036_
*56 _0037_
*57 _0038_
*58 _0039_
*59 _0040_
*60 _0041_
*61 _0042_
*62 _0043_
*63 _0044_
*64 _0045_
*65 _0046_
*66 _0047_
*67 _0048_
*68 _0049_
*69 _0050_
*70 _0051_
*71 _0052_
*72 _0053_
*73 _0054_
*74 _0055_
*75 _0056_
*76 _0057_
*77 _0058_
*78 _0059_
*79 _0060_
*80 _0061_
*81 _0062_
*82 _0063_
*83 _0064_
*84 _0065_
*85 _0066_
*86 _0067_
*87 _0068_
*88 _0069_
*89 _0070_
*90 _0071_
*91 _0072_
*92 _0073_
*93 _0074_
*94 _0075_
*95 _0076_
*96 _0077_
*97 _0078_
*98 _0079_
*99 _0080_
*100 _0081_
*101 _0082_
*102 _0083_
*103 _0084_
*104 _0085_
*105 _0086_
*106 _0087_
*107 _0088_
*108 _0089_
*109 _0090_
*110 _0091_
*111 _0092_
*112 _0093_
*113 _0094_
*114 _0095_
*115 _0096_
*116 _0097_
*117 _0098_
*118 _0099_
*119 _0100_
*120 _0101_
*121 _0102_
*122 _0103_
*123 _0104_
*124 _0105_
*125 _0106_
*126 _0107_
*127 _0108_
*128 _0109_
*129 _0110_
*130 _0111_
*131 _0112_
*132 _0113_
*133 _0114_
*134 _0115_
*135 _0116_
*136 _0117_
*137 _0118_
*138 _0119_
*139 _0120_
*140 _0121_
*141 _0122_
*142 _0123_
*143 _0124_
*144 _0125_
*145 _0126_
*146 _0127_
*147 _0128_
*148 _0129_
*149 _0130_
*150 _0131_
*151 _0132_
*152 _0133_
*153 _0134_
*154 _0135_
*155 _0136_
*156 _0137_
*157 _0138_
*158 _0139_
*159 _0140_
*160 _0141_
*161 _0142_
*162 _0143_
*163 _0144_
*164 _0145_
*165 _0146_
*166 _0147_
*167 _0148_
*168 _0149_
*169 _0150_
*170 _0151_
*171 _0152_
*172 _0153_
*173 _0154_
*174 _0155_
*175 _0156_
*176 _0157_
*177 _0158_
*178 _0159_
*179 _0160_
*180 _0161_
*181 _0162_
*182 _0163_
*183 _0164_
*184 _0165_
*185 _0166_
*186 _0167_
*187 _0168_
*188 _0169_
*189 _0170_
*190 _0171_
*191 _0172_
*192 _0173_
*193 _0174_
*194 _0175_
*195 _0176_
*196 _0177_
*197 _0178_
*198 _0179_
*199 _0180_
*200 _0181_
*201 _0182_
*202 _0183_
*203 _0184_
*204 _0185_
*205 _0186_
*206 _0187_
*207 _0188_
*208 _0189_
*209 _0190_
*210 _0191_
*211 _0192_
*212 _0193_
*213 _0194_
*214 _0195_
*215 _0196_
*216 _0197_
*217 _0198_
*218 _0199_
*219 _0200_
*220 _0201_
*221 _0202_
*222 _0203_
*223 _0204_
*224 _0205_
*225 _0206_
*226 _0207_
*227 _0208_
*228 _0209_
*229 _0210_
*230 _0211_
*231 _0212_
*232 _0213_
*233 _0214_
*234 _0215_
*235 _0216_
*236 _0217_
*237 _0218_
*238 _0219_
*239 _0220_
*240 _0221_
*241 _0222_
*242 _0223_
*243 _0224_
*244 _0225_
*245 _0226_
*246 _0227_
*247 _0228_
*248 _0229_
*249 _0230_
*250 _0231_
*251 _0232_
*252 _0233_
*253 _0234_
*254 _0235_
*255 _0236_
*256 _0237_
*257 _0238_
*258 _0239_
*259 _0240_
*260 _0241_
*261 _0242_
*262 _0243_
*263 _0244_
*264 _0245_
*265 _0246_
*266 _0247_
*267 _0248_
*268 _0249_
*269 _0250_
*270 _0251_
*271 _0252_
*272 _0253_
*273 _0254_
*274 _0255_
*275 _0256_
*276 _0257_
*277 _0258_
*278 _0259_
*279 _0260_
*280 _0261_
*281 _0262_
*282 _0263_
*283 _0264_
*284 _0265_
*285 _0266_
*286 _0267_
*287 _0268_
*288 _0269_
*289 _0270_
*290 _0271_
*291 _0272_
*292 _0273_
*293 _0274_
*294 _0275_
*295 _0276_
*296 _0277_
*297 _0278_
*298 _0279_
*299 _0280_
*300 _0281_
*301 _0282_
*302 _0283_
*303 _0284_
*304 _0285_
*305 _0286_
*306 _0287_
*307 _0288_
*308 _0289_
*309 _0290_
*310 _0291_
*311 _0292_
*312 _0293_
*313 _0294_
*314 _0295_
*315 _0296_
*316 _0297_
*317 _0298_
*318 _0299_
*319 _0300_
*320 _0301_
*321 _0302_
*322 _0303_
*323 _0304_
*324 _0305_
*325 _0306_
*326 _0307_
*327 _0308_
*328 _0309_
*329 _0310_
*330 _0311_
*331 _0312_
*332 _0313_
*333 _0314_
*334 _0315_
*335 _0316_
*336 _0317_
*337 _0318_
*338 _0319_
*339 _0320_
*340 _0321_
*341 _0322_
*342 _0323_
*343 _0324_
*344 _0325_
*345 _0326_
*346 _0327_
*347 _0328_
*348 _0329_
*349 _0330_
*350 _0331_
*351 _0332_
*352 _0333_
*353 _0334_
*354 _0335_
*355 _0336_
*356 _0337_
*357 _0338_
*358 _0339_
*359 _0340_
*360 _0341_
*361 _0342_
*362 _0343_
*363 _0344_
*364 _0345_
*365 _0346_
*366 _0347_
*367 _0348_
*368 _0349_
*369 _0350_
*370 _0351_
*371 _0352_
*372 _0353_
*373 _0354_
*374 _0355_
*375 _0356_
*376 _0357_
*377 _0358_
*378 _0359_
*379 _0360_
*380 _0361_
*381 _0362_
*382 _0363_
*383 _0364_
*384 _0365_
*385 _0366_
*386 _0367_
*387 _0368_
*388 _0369_
*389 _0370_
*390 _0371_
*391 _0372_
*392 _0373_
*393 _0374_
*394 _0375_
*395 _0376_
*396 _0377_
*397 _0378_
*398 _0379_
*399 _0380_
*400 _0381_
*401 _0382_
*402 _0383_
*403 _0384_
*404 _0385_
*405 _0386_
*406 _0387_
*407 _0388_
*408 _0389_
*409 _0390_
*410 _0391_
*411 _0392_
*412 _0393_
*413 _0394_
*414 _0395_
*415 _0396_
*416 _0397_
*417 _0398_
*418 _0399_
*419 _0400_
*420 _0401_
*421 _0402_
*422 _0403_
*423 _0404_
*424 _0405_
*425 _0406_
*426 _0407_
*427 _0408_
*428 _0409_
*429 _0410_
*430 _0411_
*431 _0412_
*432 _0413_
*433 _0414_
*434 _0415_
*435 _0416_
*436 _0417_
*437 _0418_
*438 _0419_
*439 _0420_
*440 _0421_
*441 _0422_
*442 _0423_
*443 _0424_
*444 _0425_
*445 _0426_
*446 _0427_
*447 _0428_
*448 _0429_
*449 _0430_
*450 _0431_
*451 _0432_
*452 _0433_
*453 _0434_
*454 _0435_
*455 _0436_
*456 _0437_
*457 _0438_
*458 _0439_
*459 _0440_
*460 _0441_
*461 _0442_
*462 _0443_
*463 _0444_
*464 _0445_
*465 _0446_
*466 _0447_
*467 _0448_
*468 _0449_
*469 _0450_
*470 _0451_
*471 _0452_
*472 _0453_
*473 _0454_
*474 _0455_
*475 _0456_
*476 _0457_
*477 _0458_
*478 _0459_
*479 _0460_
*480 _0461_
*481 _0462_
*482 _0463_
*483 _0464_
*484 _0465_
*485 _0466_
*486 _0467_
*487 _0468_
*488 _0469_
*489 _0470_
*490 _0471_
*491 _0472_
*492 _0473_
*493 _0474_
*494 _0475_
*495 _0476_
*496 _0477_
*497 _0478_
*498 _0479_
*499 _0480_
*500 _0481_
*501 _0482_
*502 _0483_
*503 _0484_
*504 _0485_
*505 _0486_
*506 _0487_
*507 _0488_
*508 _0489_
*509 _0490_
*510 _0491_
*511 _0492_
*512 _0493_
*513 _0494_
*514 _0495_
*515 _0496_
*516 _0497_
*517 _0498_
*518 _0499_
*519 _0500_
*520 _0501_
*521 _0502_
*522 _0503_
*523 _0504_
*524 _0505_
*525 _0506_
*526 _0507_
*527 _0508_
*528 _0509_
*529 _0510_
*530 _0511_
*531 _0512_
*532 _0513_
*533 _0514_
*534 _0515_
*535 _0516_
*536 _0517_
*537 _0518_
*538 _0519_
*539 _0520_
*540 _0521_
*541 _0522_
*542 _0523_
*543 _0524_
*544 _0525_
*545 _0526_
*546 _0527_
*547 _0528_
*548 _0529_
*549 _0530_
*550 _0531_
*551 _0532_
*552 _0533_
*553 _0534_
*554 _0535_
*555 _0536_
*556 _0537_
*557 _0538_
*558 _0539_
*559 _0540_
*560 _0541_
*561 _0542_
*562 _0543_
*563 _0544_
*564 _0545_
*565 _0546_
*566 _0547_
*567 _0548_
*568 _0549_
*569 _0550_
*570 _0551_
*571 _0552_
*572 _0553_
*573 _0554_
*574 _0555_
*575 _0556_
*576 _0557_
*577 _0558_
*578 _0559_
*579 _0560_
*580 _0561_
*581 _0562_
*582 _0563_
*583 _0564_
*584 _0565_
*585 _0566_
*586 _0567_
*587 _0568_
*588 _0569_
*589 _0570_
*590 _0571_
*591 _0572_
*592 _0573_
*593 _0574_
*594 _0575_
*595 _0576_
*596 _0577_
*597 _0578_
*598 _0579_
*599 _0580_
*600 _0581_
*601 _0582_
*602 _0583_
*603 _0584_
*604 _0585_
*605 _0586_
*606 _0587_
*607 _0588_
*608 _0589_
*609 _0590_
*610 _0591_
*611 _0592_
*612 _0593_
*613 _0594_
*614 _0595_
*615 _0596_
*616 _0597_
*617 _0598_
*618 _0599_
*619 _0600_
*620 _0601_
*621 _0602_
*622 _0603_
*623 _0604_
*624 _0605_
*625 _0606_
*626 _0607_
*627 _0608_
*628 _0609_
*629 _0610_
*630 _0611_
*631 _0612_
*632 _0613_
*633 _0614_
*634 _0615_
*635 _0616_
*636 _0617_
*637 _0618_
*638 _0619_
*639 _0620_
*640 _0621_
*641 _0622_
*642 _0623_
*643 _0624_
*644 _0625_
*645 _0626_
*646 _0627_
*647 _0628_
*648 _0629_
*649 _0630_
*650 _0631_
*651 _0632_
*652 _0633_
*653 _0634_
*654 _0635_
*655 _0636_
*656 _0637_
*657 _0638_
*658 _0639_
*659 _0640_
*660 _0641_
*661 _0642_
*662 _0643_
*663 _0644_
*664 _0645_
*665 _0646_
*666 _0647_
*667 _0648_
*668 _0649_
*669 _0650_
*670 _0651_
*671 _0652_
*672 _0653_
*673 _0654_
*674 _0655_
*675 _0656_
*676 _0657_
*677 _0658_
*678 _0659_
*679 _0660_
*680 _0661_
*681 _0662_
*682 _0663_
*683 _0664_
*684 _0665_
*685 _0666_
*686 _0667_
*687 _0668_
*688 _0669_
*689 _0670_
*690 _0671_
*691 _0672_
*692 _0673_
*693 _0674_
*694 _0675_
*695 _0676_
*696 _0677_
*697 _0678_
*698 _0679_
*699 _0680_
*700 _0681_
*701 _0682_
*702 _0683_
*703 _0684_
*704 _0685_
*705 _0686_
*706 _0687_
*707 _0688_
*708 _0689_
*709 _0690_
*710 _0691_
*711 _0692_
*712 _0693_
*713 _0694_
*714 _0695_
*715 _0696_
*716 _0697_
*717 _0698_
*718 _0699_
*719 _0700_
*720 _0701_
*721 _0702_
*722 _0703_
*723 _0704_
*724 _0705_
*725 _0706_
*726 _0707_
*727 _0708_
*728 _0709_
*729 _0710_
*730 _0711_
*731 _0712_
*732 _0713_
*733 _0714_
*734 _0715_
*735 _0716_
*736 _0717_
*737 _0718_
*738 _0719_
*739 _0720_
*740 _0721_
*741 _0722_
*742 _0723_
*743 _0724_
*744 _0725_
*745 _0726_
*746 _0727_
*747 _0728_
*748 _0729_
*749 _0730_
*750 _0731_
*751 _0732_
*752 _0733_
*753 _0734_
*754 _0735_
*755 _0736_
*756 _0737_
*757 _0738_
*758 _0739_
*759 _0740_
*760 _0741_
*761 _0742_
*762 _0743_
*763 _0744_
*764 _0745_
*765 _0746_
*766 _0747_
*767 _0748_
*768 _0749_
*769 _0750_
*770 _0751_
*771 _0752_
*772 _0753_
*773 _0754_
*774 _0755_
*775 _0756_
*776 _0757_
*777 _0758_
*778 _0759_
*779 _0760_
*780 _0761_
*781 _0762_
*782 _0763_
*783 _0764_
*784 _0765_
*785 _0766_
*786 _0767_
*787 _0768_
*788 _0769_
*789 _0770_
*790 _0771_
*791 _0772_
*792 _0773_
*793 _0774_
*794 _0775_
*795 _0776_
*796 _0777_
*797 _0778_
*798 _0779_
*799 _0780_
*800 _0781_
*801 _0782_
*802 _0783_
*803 _0784_
*804 _0785_
*805 _0786_
*806 _0787_
*807 _0788_
*808 _0789_
*809 _0790_
*810 _0791_
*811 _0792_
*812 _0793_
*813 _0794_
*814 _0795_
*815 _0796_
*816 _0797_
*817 _0798_
*818 _0799_
*819 _0800_
*820 _0801_
*821 _0802_
*822 _0803_
*823 _0804_
*824 _0805_
*825 _0806_
*826 _0807_
*827 _0808_
*828 _0809_
*829 _0810_
*830 _0811_
*831 _0812_
*832 _0813_
*833 _0814_
*834 buffer\[0\]
*835 buffer\[100\]
*836 buffer\[101\]
*837 buffer\[102\]
*838 buffer\[103\]
*839 buffer\[104\]
*840 buffer\[105\]
*841 buffer\[106\]
*842 buffer\[107\]
*843 buffer\[108\]
*844 buffer\[109\]
*845 buffer\[10\]
*846 buffer\[110\]
*847 buffer\[111\]
*848 buffer\[112\]
*849 buffer\[113\]
*850 buffer\[114\]
*851 buffer\[115\]
*852 buffer\[116\]
*853 buffer\[117\]
*854 buffer\[118\]
*855 buffer\[119\]
*856 buffer\[11\]
*857 buffer\[120\]
*858 buffer\[121\]
*859 buffer\[122\]
*860 buffer\[123\]
*861 buffer\[124\]
*862 buffer\[125\]
*863 buffer\[126\]
*864 buffer\[127\]
*865 buffer\[128\]
*866 buffer\[129\]
*867 buffer\[12\]
*868 buffer\[130\]
*869 buffer\[131\]
*870 buffer\[132\]
*871 buffer\[133\]
*872 buffer\[134\]
*873 buffer\[135\]
*874 buffer\[136\]
*875 buffer\[137\]
*876 buffer\[138\]
*877 buffer\[139\]
*878 buffer\[13\]
*879 buffer\[140\]
*880 buffer\[141\]
*881 buffer\[142\]
*882 buffer\[143\]
*883 buffer\[144\]
*884 buffer\[145\]
*885 buffer\[146\]
*886 buffer\[147\]
*887 buffer\[148\]
*888 buffer\[149\]
*889 buffer\[14\]
*890 buffer\[150\]
*891 buffer\[151\]
*892 buffer\[152\]
*893 buffer\[153\]
*894 buffer\[154\]
*895 buffer\[155\]
*896 buffer\[156\]
*897 buffer\[157\]
*898 buffer\[158\]
*899 buffer\[159\]
*900 buffer\[15\]
*901 buffer\[160\]
*902 buffer\[161\]
*903 buffer\[162\]
*904 buffer\[163\]
*905 buffer\[164\]
*906 buffer\[165\]
*907 buffer\[166\]
*908 buffer\[167\]
*909 buffer\[168\]
*910 buffer\[169\]
*911 buffer\[16\]
*912 buffer\[170\]
*913 buffer\[171\]
*914 buffer\[172\]
*915 buffer\[173\]
*916 buffer\[174\]
*917 buffer\[175\]
*918 buffer\[176\]
*919 buffer\[177\]
*920 buffer\[178\]
*921 buffer\[179\]
*922 buffer\[17\]
*923 buffer\[180\]
*924 buffer\[181\]
*925 buffer\[182\]
*926 buffer\[183\]
*927 buffer\[184\]
*928 buffer\[185\]
*929 buffer\[186\]
*930 buffer\[187\]
*931 buffer\[188\]
*932 buffer\[189\]
*933 buffer\[18\]
*934 buffer\[190\]
*935 buffer\[191\]
*936 buffer\[192\]
*937 buffer\[193\]
*938 buffer\[194\]
*939 buffer\[195\]
*940 buffer\[196\]
*941 buffer\[197\]
*942 buffer\[198\]
*943 buffer\[199\]
*944 buffer\[19\]
*945 buffer\[1\]
*946 buffer\[200\]
*947 buffer\[201\]
*948 buffer\[202\]
*949 buffer\[203\]
*950 buffer\[204\]
*951 buffer\[205\]
*952 buffer\[206\]
*953 buffer\[207\]
*954 buffer\[208\]
*955 buffer\[209\]
*956 buffer\[20\]
*957 buffer\[21\]
*958 buffer\[22\]
*959 buffer\[23\]
*960 buffer\[24\]
*961 buffer\[25\]
*962 buffer\[26\]
*963 buffer\[27\]
*964 buffer\[28\]
*965 buffer\[29\]
*966 buffer\[2\]
*967 buffer\[30\]
*968 buffer\[31\]
*969 buffer\[32\]
*970 buffer\[33\]
*971 buffer\[34\]
*972 buffer\[35\]
*973 buffer\[36\]
*974 buffer\[37\]
*975 buffer\[38\]
*976 buffer\[39\]
*977 buffer\[3\]
*978 buffer\[40\]
*979 buffer\[41\]
*980 buffer\[42\]
*981 buffer\[43\]
*982 buffer\[44\]
*983 buffer\[45\]
*984 buffer\[46\]
*985 buffer\[47\]
*986 buffer\[48\]
*987 buffer\[49\]
*988 buffer\[4\]
*989 buffer\[50\]
*990 buffer\[51\]
*991 buffer\[52\]
*992 buffer\[53\]
*993 buffer\[54\]
*994 buffer\[55\]
*995 buffer\[56\]
*996 buffer\[57\]
*997 buffer\[58\]
*998 buffer\[59\]
*999 buffer\[5\]
*1000 buffer\[60\]
*1001 buffer\[61\]
*1002 buffer\[62\]
*1003 buffer\[63\]
*1004 buffer\[64\]
*1005 buffer\[65\]
*1006 buffer\[66\]
*1007 buffer\[67\]
*1008 buffer\[68\]
*1009 buffer\[69\]
*1010 buffer\[6\]
*1011 buffer\[70\]
*1012 buffer\[71\]
*1013 buffer\[72\]
*1014 buffer\[73\]
*1015 buffer\[74\]
*1016 buffer\[75\]
*1017 buffer\[76\]
*1018 buffer\[77\]
*1019 buffer\[78\]
*1020 buffer\[79\]
*1021 buffer\[7\]
*1022 buffer\[80\]
*1023 buffer\[81\]
*1024 buffer\[82\]
*1025 buffer\[83\]
*1026 buffer\[84\]
*1027 buffer\[85\]
*1028 buffer\[86\]
*1029 buffer\[87\]
*1030 buffer\[88\]
*1031 buffer\[89\]
*1032 buffer\[8\]
*1033 buffer\[90\]
*1034 buffer\[91\]
*1035 buffer\[92\]
*1036 buffer\[93\]
*1037 buffer\[94\]
*1038 buffer\[95\]
*1039 buffer\[96\]
*1040 buffer\[97\]
*1041 buffer\[98\]
*1042 buffer\[99\]
*1043 buffer\[9\]
*1044 clknet_0_io_in[0]
*1045 clknet_1_0__leaf_io_in[0]
*1046 clknet_1_1__leaf_io_in[0]
*1047 clknet_leaf_0_io_in[0]
*1048 clknet_leaf_10_io_in[0]
*1049 clknet_leaf_11_io_in[0]
*1050 clknet_leaf_12_io_in[0]
*1051 clknet_leaf_13_io_in[0]
*1052 clknet_leaf_14_io_in[0]
*1053 clknet_leaf_15_io_in[0]
*1054 clknet_leaf_16_io_in[0]
*1055 clknet_leaf_17_io_in[0]
*1056 clknet_leaf_18_io_in[0]
*1057 clknet_leaf_1_io_in[0]
*1058 clknet_leaf_2_io_in[0]
*1059 clknet_leaf_4_io_in[0]
*1060 clknet_leaf_5_io_in[0]
*1061 clknet_leaf_6_io_in[0]
*1062 clknet_leaf_7_io_in[0]
*1063 clknet_leaf_8_io_in[0]
*1064 clknet_leaf_9_io_in[0]
*1065 counter\[0\]
*1066 counter\[1\]
*1067 counter\[2\]
*1068 net1
*1069 net2
*1070 net3
*1071 net4
*1072 net5
*1073 ANTENNA_1
*1074 ANTENNA_2
*1075 ANTENNA_3
*1076 ANTENNA_4
*1077 ANTENNA_5
*1078 ANTENNA_6
*1079 ANTENNA_7
*1080 FILLER_0_103
*1081 FILLER_0_110
*1082 FILLER_0_113
*1083 FILLER_0_12
*1084 FILLER_0_124
*1085 FILLER_0_128
*1086 FILLER_0_138
*1087 FILLER_0_141
*1088 FILLER_0_153
*1089 FILLER_0_166
*1090 FILLER_0_169
*1091 FILLER_0_173
*1092 FILLER_0_19
*1093 FILLER_0_190
*1094 FILLER_0_197
*1095 FILLER_0_201
*1096 FILLER_0_218
*1097 FILLER_0_225
*1098 FILLER_0_249
*1099 FILLER_0_253
*1100 FILLER_0_258
*1101 FILLER_0_26
*1102 FILLER_0_263
*1103 FILLER_0_267
*1104 FILLER_0_272
*1105 FILLER_0_281
*1106 FILLER_0_29
*1107 FILLER_0_293
*1108 FILLER_0_3
*1109 FILLER_0_40
*1110 FILLER_0_47
*1111 FILLER_0_54
*1112 FILLER_0_57
*1113 FILLER_0_75
*1114 FILLER_0_82
*1115 FILLER_0_85
*1116 FILLER_0_90
*1117 FILLER_10_113
*1118 FILLER_10_133
*1119 FILLER_10_139
*1120 FILLER_10_141
*1121 FILLER_10_152
*1122 FILLER_10_172
*1123 FILLER_10_179
*1124 FILLER_10_194
*1125 FILLER_10_197
*1126 FILLER_10_21
*1127 FILLER_10_217
*1128 FILLER_10_224
*1129 FILLER_10_235
*1130 FILLER_10_250
*1131 FILLER_10_253
*1132 FILLER_10_258
*1133 FILLER_10_262
*1134 FILLER_10_27
*1135 FILLER_10_272
*1136 FILLER_10_284
*1137 FILLER_10_29
*1138 FILLER_10_296
*1139 FILLER_10_3
*1140 FILLER_10_35
*1141 FILLER_10_39
*1142 FILLER_10_59
*1143 FILLER_10_72
*1144 FILLER_10_78
*1145 FILLER_10_82
*1146 FILLER_10_85
*1147 FILLER_10_89
*1148 FILLER_10_93
*1149 FILLER_11_103
*1150 FILLER_11_110
*1151 FILLER_11_113
*1152 FILLER_11_117
*1153 FILLER_11_127
*1154 FILLER_11_13
*1155 FILLER_11_140
*1156 FILLER_11_160
*1157 FILLER_11_169
*1158 FILLER_11_17
*1159 FILLER_11_187
*1160 FILLER_11_207
*1161 FILLER_11_220
*1162 FILLER_11_225
*1163 FILLER_11_247
*1164 FILLER_11_253
*1165 FILLER_11_263
*1166 FILLER_11_276
*1167 FILLER_11_281
*1168 FILLER_11_293
*1169 FILLER_11_3
*1170 FILLER_11_35
*1171 FILLER_11_48
*1172 FILLER_11_57
*1173 FILLER_11_75
*1174 FILLER_11_79
*1175 FILLER_11_83
*1176 FILLER_12_117
*1177 FILLER_12_130
*1178 FILLER_12_134
*1179 FILLER_12_138
*1180 FILLER_12_141
*1181 FILLER_12_148
*1182 FILLER_12_156
*1183 FILLER_12_167
*1184 FILLER_12_171
*1185 FILLER_12_181
*1186 FILLER_12_19
*1187 FILLER_12_190
*1188 FILLER_12_197
*1189 FILLER_12_206
*1190 FILLER_12_213
*1191 FILLER_12_233
*1192 FILLER_12_246
*1193 FILLER_12_253
*1194 FILLER_12_26
*1195 FILLER_12_271
*1196 FILLER_12_283
*1197 FILLER_12_29
*1198 FILLER_12_295
*1199 FILLER_12_3
*1200 FILLER_12_53
*1201 FILLER_12_66
*1202 FILLER_12_72
*1203 FILLER_12_82
*1204 FILLER_12_85
*1205 FILLER_12_9
*1206 FILLER_12_97
*1207 FILLER_13_108
*1208 FILLER_13_113
*1209 FILLER_13_133
*1210 FILLER_13_148
*1211 FILLER_13_155
*1212 FILLER_13_162
*1213 FILLER_13_169
*1214 FILLER_13_174
*1215 FILLER_13_183
*1216 FILLER_13_190
*1217 FILLER_13_194
*1218 FILLER_13_204
*1219 FILLER_13_21
*1220 FILLER_13_212
*1221 FILLER_13_222
*1222 FILLER_13_225
*1223 FILLER_13_236
*1224 FILLER_13_249
*1225 FILLER_13_258
*1226 FILLER_13_278
*1227 FILLER_13_281
*1228 FILLER_13_293
*1229 FILLER_13_3
*1230 FILLER_13_36
*1231 FILLER_13_44
*1232 FILLER_13_54
*1233 FILLER_13_57
*1234 FILLER_13_65
*1235 FILLER_13_89
*1236 FILLER_13_97
*1237 FILLER_14_103
*1238 FILLER_14_110
*1239 FILLER_14_12
*1240 FILLER_14_123
*1241 FILLER_14_138
*1242 FILLER_14_141
*1243 FILLER_14_159
*1244 FILLER_14_172
*1245 FILLER_14_194
*1246 FILLER_14_197
*1247 FILLER_14_215
*1248 FILLER_14_22
*1249 FILLER_14_222
*1250 FILLER_14_229
*1251 FILLER_14_233
*1252 FILLER_14_250
*1253 FILLER_14_253
*1254 FILLER_14_270
*1255 FILLER_14_277
*1256 FILLER_14_289
*1257 FILLER_14_29
*1258 FILLER_14_297
*1259 FILLER_14_3
*1260 FILLER_14_47
*1261 FILLER_14_60
*1262 FILLER_14_8
*1263 FILLER_14_82
*1264 FILLER_14_85
*1265 FILLER_14_96
*1266 FILLER_15_10
*1267 FILLER_15_110
*1268 FILLER_15_113
*1269 FILLER_15_118
*1270 FILLER_15_124
*1271 FILLER_15_141
*1272 FILLER_15_149
*1273 FILLER_15_166
*1274 FILLER_15_169
*1275 FILLER_15_187
*1276 FILLER_15_200
*1277 FILLER_15_207
*1278 FILLER_15_222
*1279 FILLER_15_225
*1280 FILLER_15_237
*1281 FILLER_15_244
*1282 FILLER_15_251
*1283 FILLER_15_259
*1284 FILLER_15_276
*1285 FILLER_15_281
*1286 FILLER_15_293
*1287 FILLER_15_3
*1288 FILLER_15_30
*1289 FILLER_15_54
*1290 FILLER_15_57
*1291 FILLER_15_70
*1292 FILLER_15_90
*1293 FILLER_16_121
*1294 FILLER_16_134
*1295 FILLER_16_141
*1296 FILLER_16_147
*1297 FILLER_16_160
*1298 FILLER_16_166
*1299 FILLER_16_187
*1300 FILLER_16_194
*1301 FILLER_16_197
*1302 FILLER_16_202
*1303 FILLER_16_209
*1304 FILLER_16_21
*1305 FILLER_16_229
*1306 FILLER_16_249
*1307 FILLER_16_25
*1308 FILLER_16_253
*1309 FILLER_16_258
*1310 FILLER_16_264
*1311 FILLER_16_281
*1312 FILLER_16_29
*1313 FILLER_16_293
*1314 FILLER_16_3
*1315 FILLER_16_35
*1316 FILLER_16_52
*1317 FILLER_16_58
*1318 FILLER_16_75
*1319 FILLER_16_82
*1320 FILLER_16_85
*1321 FILLER_16_97
*1322 FILLER_17_110
*1323 FILLER_17_113
*1324 FILLER_17_131
*1325 FILLER_17_138
*1326 FILLER_17_158
*1327 FILLER_17_165
*1328 FILLER_17_169
*1329 FILLER_17_175
*1330 FILLER_17_179
*1331 FILLER_17_199
*1332 FILLER_17_20
*1333 FILLER_17_219
*1334 FILLER_17_223
*1335 FILLER_17_225
*1336 FILLER_17_233
*1337 FILLER_17_240
*1338 FILLER_17_244
*1339 FILLER_17_261
*1340 FILLER_17_278
*1341 FILLER_17_281
*1342 FILLER_17_293
*1343 FILLER_17_3
*1344 FILLER_17_33
*1345 FILLER_17_46
*1346 FILLER_17_50
*1347 FILLER_17_54
*1348 FILLER_17_57
*1349 FILLER_17_67
*1350 FILLER_17_80
*1351 FILLER_17_97
*1352 FILLER_18_106
*1353 FILLER_18_114
*1354 FILLER_18_118
*1355 FILLER_18_138
*1356 FILLER_18_141
*1357 FILLER_18_153
*1358 FILLER_18_173
*1359 FILLER_18_18
*1360 FILLER_18_193
*1361 FILLER_18_197
*1362 FILLER_18_205
*1363 FILLER_18_209
*1364 FILLER_18_22
*1365 FILLER_18_226
*1366 FILLER_18_236
*1367 FILLER_18_249
*1368 FILLER_18_253
*1369 FILLER_18_26
*1370 FILLER_18_264
*1371 FILLER_18_277
*1372 FILLER_18_284
*1373 FILLER_18_29
*1374 FILLER_18_296
*1375 FILLER_18_3
*1376 FILLER_18_42
*1377 FILLER_18_62
*1378 FILLER_18_82
*1379 FILLER_18_85
*1380 FILLER_18_89
*1381 FILLER_19_110
*1382 FILLER_19_113
*1383 FILLER_19_118
*1384 FILLER_19_122
*1385 FILLER_19_14
*1386 FILLER_19_143
*1387 FILLER_19_153
*1388 FILLER_19_166
*1389 FILLER_19_169
*1390 FILLER_19_180
*1391 FILLER_19_184
*1392 FILLER_19_194
*1393 FILLER_19_207
*1394 FILLER_19_222
*1395 FILLER_19_225
*1396 FILLER_19_249
*1397 FILLER_19_271
*1398 FILLER_19_278
*1399 FILLER_19_281
*1400 FILLER_19_292
*1401 FILLER_19_298
*1402 FILLER_19_3
*1403 FILLER_19_31
*1404 FILLER_19_51
*1405 FILLER_19_55
*1406 FILLER_19_57
*1407 FILLER_19_68
*1408 FILLER_19_78
*1409 FILLER_19_8
*1410 FILLER_19_90
*1411 FILLER_1_110
*1412 FILLER_1_113
*1413 FILLER_1_119
*1414 FILLER_1_123
*1415 FILLER_1_143
*1416 FILLER_1_163
*1417 FILLER_1_167
*1418 FILLER_1_169
*1419 FILLER_1_187
*1420 FILLER_1_193
*1421 FILLER_1_210
*1422 FILLER_1_217
*1423 FILLER_1_223
*1424 FILLER_1_225
*1425 FILLER_1_243
*1426 FILLER_1_250
*1427 FILLER_1_257
*1428 FILLER_1_264
*1429 FILLER_1_271
*1430 FILLER_1_279
*1431 FILLER_1_28
*1432 FILLER_1_281
*1433 FILLER_1_293
*1434 FILLER_1_3
*1435 FILLER_1_48
*1436 FILLER_1_57
*1437 FILLER_1_68
*1438 FILLER_1_8
*1439 FILLER_1_90
*1440 FILLER_20_108
*1441 FILLER_20_116
*1442 FILLER_20_134
*1443 FILLER_20_141
*1444 FILLER_20_152
*1445 FILLER_20_158
*1446 FILLER_20_165
*1447 FILLER_20_174
*1448 FILLER_20_182
*1449 FILLER_20_190
*1450 FILLER_20_197
*1451 FILLER_20_201
*1452 FILLER_20_208
*1453 FILLER_20_21
*1454 FILLER_20_221
*1455 FILLER_20_234
*1456 FILLER_20_244
*1457 FILLER_20_253
*1458 FILLER_20_27
*1459 FILLER_20_275
*1460 FILLER_20_29
*1461 FILLER_20_295
*1462 FILLER_20_3
*1463 FILLER_20_40
*1464 FILLER_20_46
*1465 FILLER_20_63
*1466 FILLER_20_73
*1467 FILLER_20_77
*1468 FILLER_20_82
*1469 FILLER_20_85
*1470 FILLER_21_103
*1471 FILLER_21_110
*1472 FILLER_21_113
*1473 FILLER_21_12
*1474 FILLER_21_121
*1475 FILLER_21_141
*1476 FILLER_21_161
*1477 FILLER_21_167
*1478 FILLER_21_169
*1479 FILLER_21_180
*1480 FILLER_21_202
*1481 FILLER_21_222
*1482 FILLER_21_225
*1483 FILLER_21_243
*1484 FILLER_21_25
*1485 FILLER_21_250
*1486 FILLER_21_257
*1487 FILLER_21_264
*1488 FILLER_21_271
*1489 FILLER_21_278
*1490 FILLER_21_281
*1491 FILLER_21_293
*1492 FILLER_21_3
*1493 FILLER_21_31
*1494 FILLER_21_41
*1495 FILLER_21_54
*1496 FILLER_21_57
*1497 FILLER_21_65
*1498 FILLER_21_92
*1499 FILLER_22_110
*1500 FILLER_22_114
*1501 FILLER_22_118
*1502 FILLER_22_138
*1503 FILLER_22_141
*1504 FILLER_22_153
*1505 FILLER_22_173
*1506 FILLER_22_193
*1507 FILLER_22_197
*1508 FILLER_22_208
*1509 FILLER_22_22
*1510 FILLER_22_221
*1511 FILLER_22_228
*1512 FILLER_22_250
*1513 FILLER_22_253
*1514 FILLER_22_258
*1515 FILLER_22_282
*1516 FILLER_22_29
*1517 FILLER_22_295
*1518 FILLER_22_3
*1519 FILLER_22_53
*1520 FILLER_22_60
*1521 FILLER_22_77
*1522 FILLER_22_83
*1523 FILLER_22_85
*1524 FILLER_22_9
*1525 FILLER_23_100
*1526 FILLER_23_110
*1527 FILLER_23_113
*1528 FILLER_23_137
*1529 FILLER_23_149
*1530 FILLER_23_166
*1531 FILLER_23_169
*1532 FILLER_23_174
*1533 FILLER_23_182
*1534 FILLER_23_192
*1535 FILLER_23_200
*1536 FILLER_23_21
*1537 FILLER_23_217
*1538 FILLER_23_223
*1539 FILLER_23_225
*1540 FILLER_23_230
*1541 FILLER_23_245
*1542 FILLER_23_249
*1543 FILLER_23_266
*1544 FILLER_23_273
*1545 FILLER_23_279
*1546 FILLER_23_281
*1547 FILLER_23_293
*1548 FILLER_23_3
*1549 FILLER_23_41
*1550 FILLER_23_49
*1551 FILLER_23_54
*1552 FILLER_23_57
*1553 FILLER_23_68
*1554 FILLER_23_72
*1555 FILLER_23_76
*1556 FILLER_23_83
*1557 FILLER_23_90
*1558 FILLER_24_108
*1559 FILLER_24_112
*1560 FILLER_24_135
*1561 FILLER_24_139
*1562 FILLER_24_141
*1563 FILLER_24_152
*1564 FILLER_24_162
*1565 FILLER_24_169
*1566 FILLER_24_177
*1567 FILLER_24_18
*1568 FILLER_24_194
*1569 FILLER_24_197
*1570 FILLER_24_202
*1571 FILLER_24_215
*1572 FILLER_24_22
*1573 FILLER_24_221
*1574 FILLER_24_231
*1575 FILLER_24_235
*1576 FILLER_24_245
*1577 FILLER_24_251
*1578 FILLER_24_253
*1579 FILLER_24_26
*1580 FILLER_24_264
*1581 FILLER_24_279
*1582 FILLER_24_29
*1583 FILLER_24_291
*1584 FILLER_24_3
*1585 FILLER_24_42
*1586 FILLER_24_62
*1587 FILLER_24_77
*1588 FILLER_24_83
*1589 FILLER_24_85
*1590 FILLER_24_97
*1591 FILLER_25_107
*1592 FILLER_25_11
*1593 FILLER_25_111
*1594 FILLER_25_113
*1595 FILLER_25_119
*1596 FILLER_25_126
*1597 FILLER_25_146
*1598 FILLER_25_166
*1599 FILLER_25_169
*1600 FILLER_25_174
*1601 FILLER_25_178
*1602 FILLER_25_199
*1603 FILLER_25_219
*1604 FILLER_25_223
*1605 FILLER_25_225
*1606 FILLER_25_24
*1607 FILLER_25_245
*1608 FILLER_25_252
*1609 FILLER_25_260
*1610 FILLER_25_278
*1611 FILLER_25_281
*1612 FILLER_25_286
*1613 FILLER_25_293
*1614 FILLER_25_3
*1615 FILLER_25_41
*1616 FILLER_25_50
*1617 FILLER_25_57
*1618 FILLER_25_66
*1619 FILLER_25_7
*1620 FILLER_25_74
*1621 FILLER_25_96
*1622 FILLER_26_109
*1623 FILLER_26_128
*1624 FILLER_26_138
*1625 FILLER_26_141
*1626 FILLER_26_150
*1627 FILLER_26_163
*1628 FILLER_26_183
*1629 FILLER_26_193
*1630 FILLER_26_197
*1631 FILLER_26_205
*1632 FILLER_26_21
*1633 FILLER_26_213
*1634 FILLER_26_230
*1635 FILLER_26_238
*1636 FILLER_26_249
*1637 FILLER_26_253
*1638 FILLER_26_264
*1639 FILLER_26_27
*1640 FILLER_26_281
*1641 FILLER_26_29
*1642 FILLER_26_293
*1643 FILLER_26_3
*1644 FILLER_26_47
*1645 FILLER_26_54
*1646 FILLER_26_63
*1647 FILLER_26_73
*1648 FILLER_26_81
*1649 FILLER_26_85
*1650 FILLER_26_97
*1651 FILLER_27_10
*1652 FILLER_27_100
*1653 FILLER_27_110
*1654 FILLER_27_113
*1655 FILLER_27_124
*1656 FILLER_27_148
*1657 FILLER_27_161
*1658 FILLER_27_167
*1659 FILLER_27_169
*1660 FILLER_27_18
*1661 FILLER_27_181
*1662 FILLER_27_205
*1663 FILLER_27_218
*1664 FILLER_27_225
*1665 FILLER_27_249
*1666 FILLER_27_269
*1667 FILLER_27_276
*1668 FILLER_27_281
*1669 FILLER_27_286
*1670 FILLER_27_293
*1671 FILLER_27_3
*1672 FILLER_27_39
*1673 FILLER_27_49
*1674 FILLER_27_55
*1675 FILLER_27_57
*1676 FILLER_27_73
*1677 FILLER_27_81
*1678 FILLER_27_92
*1679 FILLER_28_10
*1680 FILLER_28_104
*1681 FILLER_28_114
*1682 FILLER_28_130
*1683 FILLER_28_138
*1684 FILLER_28_141
*1685 FILLER_28_159
*1686 FILLER_28_167
*1687 FILLER_28_17
*1688 FILLER_28_173
*1689 FILLER_28_183
*1690 FILLER_28_190
*1691 FILLER_28_197
*1692 FILLER_28_202
*1693 FILLER_28_210
*1694 FILLER_28_227
*1695 FILLER_28_240
*1696 FILLER_28_247
*1697 FILLER_28_25
*1698 FILLER_28_251
*1699 FILLER_28_253
*1700 FILLER_28_258
*1701 FILLER_28_282
*1702 FILLER_28_29
*1703 FILLER_28_294
*1704 FILLER_28_298
*1705 FILLER_28_3
*1706 FILLER_28_40
*1707 FILLER_28_55
*1708 FILLER_28_66
*1709 FILLER_28_72
*1710 FILLER_28_78
*1711 FILLER_28_85
*1712 FILLER_28_94
*1713 FILLER_29_10
*1714 FILLER_29_105
*1715 FILLER_29_111
*1716 FILLER_29_113
*1717 FILLER_29_121
*1718 FILLER_29_144
*1719 FILLER_29_148
*1720 FILLER_29_16
*1721 FILLER_29_165
*1722 FILLER_29_169
*1723 FILLER_29_187
*1724 FILLER_29_207
*1725 FILLER_29_220
*1726 FILLER_29_225
*1727 FILLER_29_24
*1728 FILLER_29_247
*1729 FILLER_29_260
*1730 FILLER_29_273
*1731 FILLER_29_279
*1732 FILLER_29_281
*1733 FILLER_29_286
*1734 FILLER_29_298
*1735 FILLER_29_3
*1736 FILLER_29_40
*1737 FILLER_29_44
*1738 FILLER_29_54
*1739 FILLER_29_57
*1740 FILLER_29_63
*1741 FILLER_29_71
*1742 FILLER_29_75
*1743 FILLER_29_83
*1744 FILLER_29_95
*1745 FILLER_2_109
*1746 FILLER_2_129
*1747 FILLER_2_138
*1748 FILLER_2_141
*1749 FILLER_2_147
*1750 FILLER_2_157
*1751 FILLER_2_177
*1752 FILLER_2_194
*1753 FILLER_2_197
*1754 FILLER_2_212
*1755 FILLER_2_220
*1756 FILLER_2_230
*1757 FILLER_2_243
*1758 FILLER_2_250
*1759 FILLER_2_253
*1760 FILLER_2_26
*1761 FILLER_2_264
*1762 FILLER_2_276
*1763 FILLER_2_288
*1764 FILLER_2_29
*1765 FILLER_2_296
*1766 FILLER_2_3
*1767 FILLER_2_34
*1768 FILLER_2_47
*1769 FILLER_2_51
*1770 FILLER_2_68
*1771 FILLER_2_72
*1772 FILLER_2_82
*1773 FILLER_2_85
*1774 FILLER_2_9
*1775 FILLER_2_96
*1776 FILLER_30_105
*1777 FILLER_30_114
*1778 FILLER_30_128
*1779 FILLER_30_138
*1780 FILLER_30_141
*1781 FILLER_30_147
*1782 FILLER_30_151
*1783 FILLER_30_161
*1784 FILLER_30_168
*1785 FILLER_30_177
*1786 FILLER_30_189
*1787 FILLER_30_194
*1788 FILLER_30_197
*1789 FILLER_30_203
*1790 FILLER_30_21
*1791 FILLER_30_223
*1792 FILLER_30_247
*1793 FILLER_30_251
*1794 FILLER_30_253
*1795 FILLER_30_258
*1796 FILLER_30_27
*1797 FILLER_30_280
*1798 FILLER_30_29
*1799 FILLER_30_293
*1800 FILLER_30_3
*1801 FILLER_30_34
*1802 FILLER_30_45
*1803 FILLER_30_54
*1804 FILLER_30_62
*1805 FILLER_30_71
*1806 FILLER_30_77
*1807 FILLER_30_82
*1808 FILLER_30_85
*1809 FILLER_30_9
*1810 FILLER_30_97
*1811 FILLER_31_110
*1812 FILLER_31_113
*1813 FILLER_31_12
*1814 FILLER_31_124
*1815 FILLER_31_128
*1816 FILLER_31_149
*1817 FILLER_31_165
*1818 FILLER_31_169
*1819 FILLER_31_187
*1820 FILLER_31_194
*1821 FILLER_31_207
*1822 FILLER_31_222
*1823 FILLER_31_225
*1824 FILLER_31_230
*1825 FILLER_31_234
*1826 FILLER_31_24
*1827 FILLER_31_244
*1828 FILLER_31_264
*1829 FILLER_31_273
*1830 FILLER_31_279
*1831 FILLER_31_281
*1832 FILLER_31_293
*1833 FILLER_31_3
*1834 FILLER_31_31
*1835 FILLER_31_41
*1836 FILLER_31_50
*1837 FILLER_31_57
*1838 FILLER_31_63
*1839 FILLER_31_71
*1840 FILLER_31_81
*1841 FILLER_31_90
*1842 FILLER_31_99
*1843 FILLER_32_100
*1844 FILLER_32_104
*1845 FILLER_32_111
*1846 FILLER_32_121
*1847 FILLER_32_13
*1848 FILLER_32_133
*1849 FILLER_32_139
*1850 FILLER_32_141