*SPEF "ieee 1481-1999"
*DESIGN "option22"
*DATE "11:11:11 Fri 11 11, 1111"
*VENDOR "OpenRCX"
*PROGRAM "Parallel Extraction"
*VERSION "1.0"
*DESIGN_FLOW "NAME_SCOPE LOCAL" "PIN_CAP NONE"
*DIVIDER /
*DELIMITER :
*BUS_DELIMITER []
*T_UNIT 1 NS
*C_UNIT 1 PF
*R_UNIT 1 OHM
*L_UNIT 1 HENRY

*NAME_MAP
*1 io_in[0]
*2 io_in[1]
*3 io_in[2]
*4 io_in[3]
*5 io_in[4]
*6 io_in[5]
*7 io_in[6]
*8 io_in[7]
*9 io_out[0]
*10 io_out[1]
*11 io_out[2]
*12 io_out[3]
*13 io_out[4]
*14 io_out[5]
*15 io_out[6]
*16 io_out[7]
*19 _000_
*20 _001_
*21 _002_
*22 _003_
*23 _004_
*24 _005_
*25 _006_
*26 _007_
*27 _008_
*28 _009_
*29 _010_
*30 _011_
*31 _012_
*32 _013_
*33 _014_
*34 _015_
*35 _016_
*36 _017_
*37 _018_
*38 _019_
*39 _020_
*40 _021_
*41 _022_
*42 _023_
*43 _024_
*44 _025_
*45 _026_
*46 _027_
*47 _028_
*48 _029_
*49 _030_
*50 _031_
*51 _032_
*52 _033_
*53 _034_
*54 _035_
*55 _036_
*56 _037_
*57 _038_
*58 _039_
*59 _040_
*60 _041_
*61 _042_
*62 _043_
*63 _044_
*64 _045_
*65 _046_
*66 _047_
*67 _048_
*68 _049_
*69 _050_
*70 _051_
*71 _052_
*72 _053_
*73 _054_
*74 _055_
*75 _056_
*76 _057_
*77 _058_
*78 _059_
*79 _060_
*80 _061_
*81 _062_
*82 _063_
*83 _064_
*84 _065_
*85 _066_
*86 _067_
*87 _068_
*88 _069_
*89 _070_
*90 _071_
*91 _072_
*92 _073_
*93 _074_
*94 _075_
*95 _076_
*96 _077_
*97 _078_
*98 _079_
*99 _080_
*100 _081_
*101 _082_
*102 _083_
*103 _084_
*104 _085_
*105 _086_
*106 _087_
*107 _088_
*108 _089_
*109 _090_
*110 _091_
*111 _092_
*112 _093_
*113 _094_
*114 _095_
*115 _096_
*116 _097_
*117 _098_
*118 _099_
*119 _100_
*120 _101_
*121 _102_
*122 _103_
*123 _104_
*124 _105_
*125 _106_
*126 _107_
*127 _108_
*128 _109_
*129 _110_
*130 _111_
*131 _112_
*132 _113_
*133 _114_
*134 _115_
*135 _116_
*136 _117_
*137 _118_
*138 _119_
*139 _120_
*140 _121_
*141 _122_
*142 _123_
*143 _124_
*144 _125_
*145 _126_
*146 _127_
*147 _128_
*148 _129_
*149 _130_
*150 _131_
*151 _132_
*152 _133_
*153 _134_
*154 _135_
*155 _136_
*156 _137_
*157 _138_
*158 _139_
*159 _140_
*160 _141_
*161 _142_
*162 _143_
*163 _144_
*164 _145_
*165 _146_
*166 _147_
*167 _148_
*168 _149_
*169 _150_
*170 _151_
*171 _152_
*172 _153_
*173 _154_
*174 _155_
*175 _156_
*176 _157_
*177 _158_
*178 _159_
*179 _160_
*180 _161_
*181 _162_
*182 _163_
*183 _164_
*184 _165_
*185 _166_
*186 _167_
*187 _168_
*188 _169_
*189 _170_
*190 _171_
*191 _172_
*192 _173_
*193 _174_
*194 _175_
*195 _176_
*196 _177_
*197 _178_
*198 _179_
*199 _180_
*200 _181_
*201 _182_
*202 _183_
*203 _184_
*204 _185_
*205 _186_
*206 _187_
*207 _188_
*208 _189_
*209 _190_
*210 _191_
*211 _192_
*212 _193_
*213 _194_
*214 _195_
*215 _196_
*216 _197_
*217 _198_
*218 _199_
*219 _200_
*220 _201_
*221 _202_
*222 _203_
*223 _204_
*224 _205_
*225 _206_
*226 _207_
*227 _208_
*228 _209_
*229 _210_
*230 _211_
*231 _212_
*232 _213_
*233 _214_
*234 _215_
*235 _216_
*236 _217_
*237 _218_
*238 _219_
*239 _220_
*240 _221_
*241 _222_
*242 _223_
*243 _224_
*244 _225_
*245 _226_
*246 _227_
*247 _228_
*248 _229_
*249 _230_
*250 _231_
*251 _232_
*252 _233_
*253 _234_
*254 _235_
*255 _236_
*256 _237_
*257 _238_
*258 _239_
*259 _240_
*260 _241_
*261 _242_
*262 _243_
*263 _244_
*264 _245_
*265 _246_
*266 _247_
*267 _248_
*268 _249_
*269 _250_
*270 _251_
*271 _252_
*272 _253_
*273 _254_
*274 _255_
*275 _256_
*276 _257_
*277 _258_
*278 _259_
*279 _260_
*280 _261_
*281 _262_
*282 _263_
*283 _264_
*284 _265_
*285 _266_
*286 _267_
*287 _268_
*288 _269_
*289 _270_
*290 _271_
*291 _272_
*292 _273_
*293 _274_
*294 _275_
*295 _276_
*296 _277_
*297 _278_
*298 _279_
*299 _280_
*300 _281_
*301 _282_
*302 _283_
*303 _284_
*304 _285_
*305 _286_
*306 _287_
*307 _288_
*308 _289_
*309 _290_
*310 _291_
*311 _292_
*312 _293_
*313 _294_
*314 _295_
*315 _296_
*316 _297_
*317 _298_
*318 _299_
*319 _300_
*320 _301_
*321 _302_
*322 _303_
*323 _304_
*324 _305_
*325 _306_
*326 _307_
*327 _308_
*328 _309_
*329 _310_
*330 _311_
*331 _312_
*332 _313_
*333 _314_
*334 _315_
*335 _316_
*336 _317_
*337 _318_
*338 _319_
*339 _320_
*340 _321_
*341 _322_
*342 _323_
*343 _324_
*344 _325_
*345 _326_
*346 _327_
*347 _328_
*348 _329_
*349 _330_
*350 _331_
*351 _332_
*352 _333_
*353 _334_
*354 _335_
*355 _336_
*356 _337_
*357 _338_
*358 _339_
*359 _340_
*360 _341_
*361 _342_
*362 _343_
*363 _344_
*364 _345_
*365 _346_
*366 _347_
*367 _348_
*368 _349_
*369 _350_
*370 _351_
*371 _352_
*372 _353_
*373 _354_
*374 _355_
*375 _356_
*376 _357_
*377 _358_
*378 _359_
*379 _360_
*380 _361_
*381 _362_
*382 _363_
*383 _364_
*384 _365_
*385 _366_
*386 _367_
*387 _368_
*388 _369_
*389 _370_
*390 _371_
*391 _372_
*392 _373_
*393 _374_
*394 _375_
*395 _376_
*396 _377_
*397 _378_
*398 _379_
*399 buffer\[0\]
*400 buffer\[100\]
*401 buffer\[101\]
*402 buffer\[102\]
*403 buffer\[103\]
*404 buffer\[104\]
*405 buffer\[105\]
*406 buffer\[106\]
*407 buffer\[107\]
*408 buffer\[108\]
*409 buffer\[109\]
*410 buffer\[10\]
*411 buffer\[110\]
*412 buffer\[111\]
*413 buffer\[112\]
*414 buffer\[113\]
*415 buffer\[114\]
*416 buffer\[115\]
*417 buffer\[116\]
*418 buffer\[117\]
*419 buffer\[118\]
*420 buffer\[119\]
*421 buffer\[11\]
*422 buffer\[120\]
*423 buffer\[121\]
*424 buffer\[122\]
*425 buffer\[123\]
*426 buffer\[124\]
*427 buffer\[125\]
*428 buffer\[126\]
*429 buffer\[127\]
*430 buffer\[128\]
*431 buffer\[129\]
*432 buffer\[12\]
*433 buffer\[130\]
*434 buffer\[131\]
*435 buffer\[132\]
*436 buffer\[133\]
*437 buffer\[134\]
*438 buffer\[135\]
*439 buffer\[136\]
*440 buffer\[137\]
*441 buffer\[138\]
*442 buffer\[139\]
*443 buffer\[13\]
*444 buffer\[140\]
*445 buffer\[141\]
*446 buffer\[142\]
*447 buffer\[143\]
*448 buffer\[144\]
*449 buffer\[145\]
*450 buffer\[146\]
*451 buffer\[147\]
*452 buffer\[148\]
*453 buffer\[149\]
*454 buffer\[14\]
*455 buffer\[150\]
*456 buffer\[151\]
*457 buffer\[152\]
*458 buffer\[153\]
*459 buffer\[154\]
*460 buffer\[155\]
*461 buffer\[156\]
*462 buffer\[157\]
*463 buffer\[158\]
*464 buffer\[159\]
*465 buffer\[15\]
*466 buffer\[160\]
*467 buffer\[161\]
*468 buffer\[162\]
*469 buffer\[163\]
*470 buffer\[164\]
*471 buffer\[165\]
*472 buffer\[166\]
*473 buffer\[167\]
*474 buffer\[168\]
*475 buffer\[169\]
*476 buffer\[16\]
*477 buffer\[170\]
*478 buffer\[171\]
*479 buffer\[172\]
*480 buffer\[173\]
*481 buffer\[174\]
*482 buffer\[175\]
*483 buffer\[17\]
*484 buffer\[18\]
*485 buffer\[19\]
*486 buffer\[1\]
*487 buffer\[20\]
*488 buffer\[21\]
*489 buffer\[22\]
*490 buffer\[23\]
*491 buffer\[24\]
*492 buffer\[25\]
*493 buffer\[26\]
*494 buffer\[27\]
*495 buffer\[28\]
*496 buffer\[29\]
*497 buffer\[2\]
*498 buffer\[30\]
*499 buffer\[31\]
*500 buffer\[32\]
*501 buffer\[33\]
*502 buffer\[34\]
*503 buffer\[35\]
*504 buffer\[36\]
*505 buffer\[37\]
*506 buffer\[38\]
*507 buffer\[39\]
*508 buffer\[3\]
*509 buffer\[40\]
*510 buffer\[41\]
*511 buffer\[42\]
*512 buffer\[43\]
*513 buffer\[44\]
*514 buffer\[45\]
*515 buffer\[46\]
*516 buffer\[47\]
*517 buffer\[48\]
*518 buffer\[49\]
*519 buffer\[4\]
*520 buffer\[50\]
*521 buffer\[51\]
*522 buffer\[52\]
*523 buffer\[53\]
*524 buffer\[54\]
*525 buffer\[55\]
*526 buffer\[56\]
*527 buffer\[57\]
*528 buffer\[58\]
*529 buffer\[59\]
*530 buffer\[5\]
*531 buffer\[60\]
*532 buffer\[61\]
*533 buffer\[62\]
*534 buffer\[63\]
*535 buffer\[64\]
*536 buffer\[65\]
*537 buffer\[66\]
*538 buffer\[67\]
*539 buffer\[68\]
*540 buffer\[69\]
*541 buffer\[6\]
*542 buffer\[70\]
*543 buffer\[71\]
*544 buffer\[72\]
*545 buffer\[73\]
*546 buffer\[74\]
*547 buffer\[75\]
*548 buffer\[76\]
*549 buffer\[77\]
*550 buffer\[78\]
*551 buffer\[79\]
*552 buffer\[7\]
*553 buffer\[80\]
*554 buffer\[81\]
*555 buffer\[82\]
*556 buffer\[83\]
*557 buffer\[84\]
*558 buffer\[85\]
*559 buffer\[86\]
*560 buffer\[87\]
*561 buffer\[88\]
*562 buffer\[89\]
*563 buffer\[90\]
*564 buffer\[91\]
*565 buffer\[92\]
*566 buffer\[93\]
*567 buffer\[94\]
*568 buffer\[95\]
*569 buffer\[96\]
*570 buffer\[97\]
*571 buffer\[98\]
*572 buffer\[99\]
*573 buffer\[9\]
*574 clknet_0_io_in[0]
*575 clknet_4_0_0_io_in[0]
*576 clknet_4_10_0_io_in[0]
*577 clknet_4_11_0_io_in[0]
*578 clknet_4_12_0_io_in[0]
*579 clknet_4_13_0_io_in[0]
*580 clknet_4_14_0_io_in[0]
*581 clknet_4_15_0_io_in[0]
*582 clknet_4_1_0_io_in[0]
*583 clknet_4_2_0_io_in[0]
*584 clknet_4_3_0_io_in[0]
*585 clknet_4_4_0_io_in[0]
*586 clknet_4_5_0_io_in[0]
*587 clknet_4_6_0_io_in[0]
*588 clknet_4_7_0_io_in[0]
*589 clknet_4_8_0_io_in[0]
*590 clknet_4_9_0_io_in[0]
*591 count\[0\]
*592 count\[1\]
*593 count\[2\]
*594 net1
*595 net2
*596 net3
*597 ANTENNA_1
*598 ANTENNA_10
*599 ANTENNA_11
*600 ANTENNA_12
*601 ANTENNA_13
*602 ANTENNA_14
*603 ANTENNA_15
*604 ANTENNA_16
*605 ANTENNA_17
*606 ANTENNA_18
*607 ANTENNA_19
*608 ANTENNA_2
*609 ANTENNA_20
*610 ANTENNA_21
*611 ANTENNA_22
*612 ANTENNA_23
*613 ANTENNA_24
*614 ANTENNA_25
*615 ANTENNA_26
*616 ANTENNA_27
*617 ANTENNA_28
*618 ANTENNA_29
*619 ANTENNA_3
*620 ANTENNA_30
*621 ANTENNA_31
*622 ANTENNA_32
*623 ANTENNA_33
*624 ANTENNA_34
*625 ANTENNA_35
*626 ANTENNA_36
*627 ANTENNA_4
*628 ANTENNA_5
*629 ANTENNA_6
*630 ANTENNA_7
*631 ANTENNA_8
*632 ANTENNA_9
*633 FILLER_0_103
*634 FILLER_0_110
*635 FILLER_0_113
*636 FILLER_0_131
*637 FILLER_0_135
*638 FILLER_0_139
*639 FILLER_0_141
*640 FILLER_0_159
*641 FILLER_0_163
*642 FILLER_0_167
*643 FILLER_0_169
*644 FILLER_0_181
*645 FILLER_0_193
*646 FILLER_0_197
*647 FILLER_0_209
*648 FILLER_0_21
*649 FILLER_0_217
*650 FILLER_0_222
*651 FILLER_0_225
*652 FILLER_0_237
*653 FILLER_0_249
*654 FILLER_0_253
*655 FILLER_0_265
*656 FILLER_0_27
*657 FILLER_0_277
*658 FILLER_0_281
*659 FILLER_0_29
*660 FILLER_0_293
*661 FILLER_0_3
*662 FILLER_0_33
*663 FILLER_0_36
*664 FILLER_0_54
*665 FILLER_0_57
*666 FILLER_0_65
*667 FILLER_0_82
*668 FILLER_0_85
*669 FILLER_10_103
*670 FILLER_10_123
*671 FILLER_10_135
*672 FILLER_10_139
*673 FILLER_10_141
*674 FILLER_10_153
*675 FILLER_10_166
*676 FILLER_10_179
*677 FILLER_10_191
*678 FILLER_10_195
*679 FILLER_10_197
*680 FILLER_10_208
*681 FILLER_10_21
*682 FILLER_10_219
*683 FILLER_10_231
*684 FILLER_10_243
*685 FILLER_10_251
*686 FILLER_10_253
*687 FILLER_10_265
*688 FILLER_10_27
*689 FILLER_10_277
*690 FILLER_10_289
*691 FILLER_10_29
*692 FILLER_10_297
*693 FILLER_10_3
*694 FILLER_10_47
*695 FILLER_10_52
*696 FILLER_10_70
*697 FILLER_10_82
*698 FILLER_10_85
*699 FILLER_11_110
*700 FILLER_11_113
*701 FILLER_11_117
*702 FILLER_11_134
*703 FILLER_11_154
*704 FILLER_11_166
*705 FILLER_11_169
*706 FILLER_11_181
*707 FILLER_11_193
*708 FILLER_11_205
*709 FILLER_11_209
*710 FILLER_11_213
*711 FILLER_11_220
*712 FILLER_11_225
*713 FILLER_11_237
*714 FILLER_11_245
*715 FILLER_11_25
*716 FILLER_11_257
*717 FILLER_11_269
*718 FILLER_11_277
*719 FILLER_11_281
*720 FILLER_11_287
*721 FILLER_11_297
*722 FILLER_11_3
*723 FILLER_11_52
*724 FILLER_11_57
*725 FILLER_11_69
*726 FILLER_11_73
*727 FILLER_11_90
*728 FILLER_12_117
*729 FILLER_12_121
*730 FILLER_12_138
*731 FILLER_12_141
*732 FILLER_12_159
*733 FILLER_12_171
*734 FILLER_12_177
*735 FILLER_12_181
*736 FILLER_12_191
*737 FILLER_12_195
*738 FILLER_12_197
*739 FILLER_12_208
*740 FILLER_12_21
*741 FILLER_12_221
*742 FILLER_12_227
*743 FILLER_12_231
*744 FILLER_12_244
*745 FILLER_12_253
*746 FILLER_12_265
*747 FILLER_12_27
*748 FILLER_12_277
*749 FILLER_12_285
*750 FILLER_12_29
*751 FILLER_12_297
*752 FILLER_12_3
*753 FILLER_12_42
*754 FILLER_12_62
*755 FILLER_12_82
*756 FILLER_12_85
*757 FILLER_12_97
*758 FILLER_13_110
*759 FILLER_13_113
*760 FILLER_13_119
*761 FILLER_13_131
*762 FILLER_13_138
*763 FILLER_13_150
*764 FILLER_13_162
*765 FILLER_13_169
*766 FILLER_13_180
*767 FILLER_13_193
*768 FILLER_13_201
*769 FILLER_13_206
*770 FILLER_13_214
*771 FILLER_13_219
*772 FILLER_13_223
*773 FILLER_13_225
*774 FILLER_13_231
*775 FILLER_13_238
*776 FILLER_13_248
*777 FILLER_13_252
*778 FILLER_13_26
*779 FILLER_13_262
*780 FILLER_13_274
*781 FILLER_13_281
*782 FILLER_13_293
*783 FILLER_13_3
*784 FILLER_13_30
*785 FILLER_13_48
*786 FILLER_13_57
*787 FILLER_13_70
*788 FILLER_13_9
*789 FILLER_13_90
*790 FILLER_14_118
*791 FILLER_14_138
*792 FILLER_14_141
*793 FILLER_14_159
*794 FILLER_14_172
*795 FILLER_14_179
*796 FILLER_14_186
*797 FILLER_14_193
*798 FILLER_14_197
*799 FILLER_14_21
*800 FILLER_14_211
*801 FILLER_14_218
*802 FILLER_14_230
*803 FILLER_14_245
*804 FILLER_14_251
*805 FILLER_14_253
*806 FILLER_14_264
*807 FILLER_14_27
*808 FILLER_14_276
*809 FILLER_14_288
*810 FILLER_14_29
*811 FILLER_14_296
*812 FILLER_14_3
*813 FILLER_14_41
*814 FILLER_14_46
*815 FILLER_14_64
*816 FILLER_14_76
*817 FILLER_14_85
*818 FILLER_14_98
*819 FILLER_15_106
*820 FILLER_15_113
*821 FILLER_15_125
*822 FILLER_15_149
*823 FILLER_15_15
*824 FILLER_15_161
*825 FILLER_15_166
*826 FILLER_15_169
*827 FILLER_15_180
*828 FILLER_15_189
*829 FILLER_15_200
*830 FILLER_15_207
*831 FILLER_15_211
*832 FILLER_15_221
*833 FILLER_15_225
*834 FILLER_15_229
*835 FILLER_15_233
*836 FILLER_15_239
*837 FILLER_15_243
*838 FILLER_15_252
*839 FILLER_15_258
*840 FILLER_15_262
*841 FILLER_15_274
*842 FILLER_15_281
*843 FILLER_15_287
*844 FILLER_15_297
*845 FILLER_15_3
*846 FILLER_15_34
*847 FILLER_15_54
*848 FILLER_15_57
*849 FILLER_15_69
*850 FILLER_15_77
*851 FILLER_15_94
*852 FILLER_16_104
*853 FILLER_16_124
*854 FILLER_16_136
*855 FILLER_16_141
*856 FILLER_16_153
*857 FILLER_16_161
*858 FILLER_16_168
*859 FILLER_16_181
*860 FILLER_16_194
*861 FILLER_16_197
*862 FILLER_16_208
*863 FILLER_16_216
*864 FILLER_16_223
*865 FILLER_16_238
*866 FILLER_16_250
*867 FILLER_16_253
*868 FILLER_16_258
*869 FILLER_16_26
*870 FILLER_16_279
*871 FILLER_16_29
*872 FILLER_16_291
*873 FILLER_16_3
*874 FILLER_16_37
*875 FILLER_16_55
*876 FILLER_16_63
*877 FILLER_16_8
*878 FILLER_16_82
*879 FILLER_16_85
*880 FILLER_17_106
*881 FILLER_17_113
*882 FILLER_17_125
*883 FILLER_17_133
*884 FILLER_17_150
*885 FILLER_17_162
*886 FILLER_17_166
*887 FILLER_17_169
*888 FILLER_17_174
*889 FILLER_17_187
*890 FILLER_17_195
*891 FILLER_17_201
*892 FILLER_17_210
*893 FILLER_17_22
*894 FILLER_17_222
*895 FILLER_17_225
*896 FILLER_17_233
*897 FILLER_17_243
*898 FILLER_17_256
*899 FILLER_17_269
*900 FILLER_17_277
*901 FILLER_17_281
*902 FILLER_17_293
*903 FILLER_17_3
*904 FILLER_17_42
*905 FILLER_17_54
*906 FILLER_17_57
*907 FILLER_17_61
*908 FILLER_17_78
*909 FILLER_17_88
*910 FILLER_18_106
*911 FILLER_18_128
*912 FILLER_18_141
*913 FILLER_18_159
*914 FILLER_18_168
*915 FILLER_18_180
*916 FILLER_18_192
*917 FILLER_18_197
*918 FILLER_18_209
*919 FILLER_18_21
*920 FILLER_18_217
*921 FILLER_18_229
*922 FILLER_18_237
*923 FILLER_18_250
*924 FILLER_18_253
*925 FILLER_18_265
*926 FILLER_18_27
*927 FILLER_18_277
*928 FILLER_18_289
*929 FILLER_18_29
*930 FILLER_18_297
*931 FILLER_18_3
*932 FILLER_18_47
*933 FILLER_18_51
*934 FILLER_18_75
*935 FILLER_18_83
*936 FILLER_18_85
*937 FILLER_18_89
*938 FILLER_19_107
*939 FILLER_19_111
*940 FILLER_19_113
*941 FILLER_19_121
*942 FILLER_19_139
*943 FILLER_19_151
*944 FILLER_19_162
*945 FILLER_19_169
*946 FILLER_19_182
*947 FILLER_19_195
*948 FILLER_19_202
*949 FILLER_19_209
*950 FILLER_19_21
*951 FILLER_19_217
*952 FILLER_19_222
*953 FILLER_19_225
*954 FILLER_19_237
*955 FILLER_19_249
*956 FILLER_19_257
*957 FILLER_19_263
*958 FILLER_19_275
*959 FILLER_19_279
*960 FILLER_19_281
*961 FILLER_19_29
*962 FILLER_19_293
*963 FILLER_19_3
*964 FILLER_19_48
*965 FILLER_19_57
*966 FILLER_19_69
*967 FILLER_19_95
*968 FILLER_1_110
*969 FILLER_1_113
*970 FILLER_1_119
*971 FILLER_1_122
*972 FILLER_1_147
*973 FILLER_1_160
*974 FILLER_1_169
*975 FILLER_1_181
*976 FILLER_1_193
*977 FILLER_1_197
*978 FILLER_1_207
*979 FILLER_1_214
*980 FILLER_1_221
*981 FILLER_1_225
*982 FILLER_1_240
*983 FILLER_1_244
*984 FILLER_1_255
*985 FILLER_1_267
*986 FILLER_1_279
*987 FILLER_1_281
*988 FILLER_1_296
*989 FILLER_1_3
*990 FILLER_1_31
*991 FILLER_1_37
*992 FILLER_1_54
*993 FILLER_1_57
*994 FILLER_1_69
*995 FILLER_1_88
*996 FILLER_1_92
*997 FILLER_20_105
*998 FILLER_20_125
*999 FILLER_20_137
*1000 FILLER_20_141
*1001 FILLER_20_147
*1002 FILLER_20_157
*1003 FILLER_20_163
*1004 FILLER_20_173
*1005 FILLER_20_185
*1006 FILLER_20_191
*1007 FILLER_20_195
*1008 FILLER_20_197
*1009 FILLER_20_201
*1010 FILLER_20_211
*1011 FILLER_20_223
*1012 FILLER_20_235
*1013 FILLER_20_247
*1014 FILLER_20_251
*1015 FILLER_20_253
*1016 FILLER_20_26
*1017 FILLER_20_264
*1018 FILLER_20_277
*1019 FILLER_20_29
*1020 FILLER_20_294
*1021 FILLER_20_298
*1022 FILLER_20_3
*1023 FILLER_20_41
*1024 FILLER_20_45
*1025 FILLER_20_62
*1026 FILLER_20_82
*1027 FILLER_20_85
*1028 FILLER_20_9
*1029 FILLER_21_110
*1030 FILLER_21_113
*1031 FILLER_21_125
*1032 FILLER_21_137
*1033 FILLER_21_143
*1034 FILLER_21_147
*1035 FILLER_21_15
*1036 FILLER_21_162
*1037 FILLER_21_169
*1038 FILLER_21_174
*1039 FILLER_21_186
*1040 FILLER_21_198
*1041 FILLER_21_210
*1042 FILLER_21_222
*1043 FILLER_21_225
*1044 FILLER_21_236
*1045 FILLER_21_248
*1046 FILLER_21_260
*1047 FILLER_21_272
*1048 FILLER_21_281
*1049 FILLER_21_293
*1050 FILLER_21_3
*1051 FILLER_21_34
*1052 FILLER_21_54
*1053 FILLER_21_57
*1054 FILLER_21_69
*1055 FILLER_21_73
*1056 FILLER_21_90
*1057 FILLER_22_101
*1058 FILLER_22_118
*1059 FILLER_22_138
*1060 FILLER_22_141
*1061 FILLER_22_159
*1062 FILLER_22_166
*1063 FILLER_22_173
*1064 FILLER_22_180
*1065 FILLER_22_193
*1066 FILLER_22_197
*1067 FILLER_22_209
*1068 FILLER_22_21
*1069 FILLER_22_221
*1070 FILLER_22_233
*1071 FILLER_22_246
*1072 FILLER_22_253
*1073 FILLER_22_265
*1074 FILLER_22_27
*1075 FILLER_22_277
*1076 FILLER_22_289
*1077 FILLER_22_29
*1078 FILLER_22_297
*1079 FILLER_22_3
*1080 FILLER_22_47
*1081 FILLER_22_59
*1082 FILLER_22_81
*1083 FILLER_22_85
*1084 FILLER_22_97
*1085 FILLER_23_110
*1086 FILLER_23_113
*1087 FILLER_23_125
*1088 FILLER_23_137
*1089 FILLER_23_14
*1090 FILLER_23_149
*1091 FILLER_23_161
*1092 FILLER_23_167
*1093 FILLER_23_169
*1094 FILLER_23_180
*1095 FILLER_23_192
*1096 FILLER_23_204
*1097 FILLER_23_216
*1098 FILLER_23_225
*1099 FILLER_23_236
*1100 FILLER_23_248
*1101 FILLER_23_260
*1102 FILLER_23_272
*1103 FILLER_23_281
*1104 FILLER_23_293
*1105 FILLER_23_3
*1106 FILLER_23_31
*1107 FILLER_23_35
*1108 FILLER_23_52
*1109 FILLER_23_57
*1110 FILLER_23_75
*1111 FILLER_23_8
*1112 FILLER_23_87
*1113 FILLER_23_93
*1114 FILLER_24_103
*1115 FILLER_24_115
*1116 FILLER_24_121
*1117 FILLER_24_138
*1118 FILLER_24_141
*1119 FILLER_24_152
*1120 FILLER_24_165
*1121 FILLER_24_177
*1122 FILLER_24_189
*1123 FILLER_24_194
*1124 FILLER_24_197
*1125 FILLER_24_202
*1126 FILLER_24_21
*1127 FILLER_24_223
*1128 FILLER_24_235
*1129 FILLER_24_247
*1130 FILLER_24_251
*1131 FILLER_24_253
*1132 FILLER_24_265
*1133 FILLER_24_27
*1134 FILLER_24_277
*1135 FILLER_24_289
*1136 FILLER_24_29
*1137 FILLER_24_297
*1138 FILLER_24_3
*1139 FILLER_24_42
*1140 FILLER_24_62
*1141 FILLER_24_82
*1142 FILLER_24_85
*1143 FILLER_25_110
*1144 FILLER_25_113
*1145 FILLER_25_125
*1146 FILLER_25_145
*1147 FILLER_25_157
*1148 FILLER_25_16
*1149 FILLER_25_163
*1150 FILLER_25_167
*1151 FILLER_25_169
*1152 FILLER_25_177
*1153 FILLER_25_190
*1154 FILLER_25_197
*1155 FILLER_25_210
*1156 FILLER_25_222
*1157 FILLER_25_225
*1158 FILLER_25_237
*1159 FILLER_25_250
*1160 FILLER_25_262
*1161 FILLER_25_274
*1162 FILLER_25_281
*1163 FILLER_25_293
*1164 FILLER_25_3
*1165 FILLER_25_34
*1166 FILLER_25_54
*1167 FILLER_25_57
*1168 FILLER_25_70
*1169 FILLER_25_8
*1170 FILLER_25_82
*1171 FILLER_26_101
*1172 FILLER_26_121
*1173 FILLER_26_136
*1174 FILLER_26_141
*1175 FILLER_26_149
*1176 FILLER_26_159
*1177 FILLER_26_168
*1178 FILLER_26_181
*1179 FILLER_26_194
*1180 FILLER_26_197
*1181 FILLER_26_209
*1182 FILLER_26_226
*1183 FILLER_26_238
*1184 FILLER_26_250
*1185 FILLER_26_253
*1186 FILLER_26_26
*1187 FILLER_26_265
*1188 FILLER_26_277
*1189 FILLER_26_289
*1190 FILLER_26_29
*1191 FILLER_26_297
*1192 FILLER_26_3
*1193 FILLER_26_34
*1194 FILLER_26_42
*1195 FILLER_26_59
*1196 FILLER_26_81
*1197 FILLER_26_85
*1198 FILLER_26_89
*1199 FILLER_26_9
*1200 FILLER_27_102
*1201 FILLER_27_110
*1202 FILLER_27_113
*1203 FILLER_27_130
*1204 FILLER_27_150
*1205 FILLER_27_161
*1206 FILLER_27_167
*1207 FILLER_27_169
*1208 FILLER_27_175
*1209 FILLER_27_179
*1210 FILLER_27_191
*1211 FILLER_27_203
*1212 FILLER_27_210
*1213 FILLER_27_22
*1214 FILLER_27_222
*1215 FILLER_27_225
*1216 FILLER_27_237
*1217 FILLER_27_245
*1218 FILLER_27_249
*1219 FILLER_27_261
*1220 FILLER_27_273
*1221 FILLER_27_279
*1222 FILLER_27_281
*1223 FILLER_27_29
*1224 FILLER_27_292
*1225 FILLER_27_298
*1226 FILLER_27_3
*1227 FILLER_27_33
*1228 FILLER_27_36
*1229 FILLER_27_54
*1230 FILLER_27_57
*1231 FILLER_27_65
*1232 FILLER_27_82
*1233 FILLER_28_105
*1234 FILLER_28_122
*1235 FILLER_28_134
*1236 FILLER_28_141
*1237 FILLER_28_153
*1238 FILLER_28_163
*1239 FILLER_28_170
*1240 FILLER_28_182
*1241 FILLER_28_193
*1242 FILLER_28_197
*1243 FILLER_28_208
*1244 FILLER_28_21
*1245 FILLER_28_221
*1246 FILLER_28_234
*1247 FILLER_28_246
*1248 FILLER_28_253
*1249 FILLER_28_265
*1250 FILLER_28_27
*1251 FILLER_28_277
*1252 FILLER_28_289
*1253 FILLER_28_29
*1254 FILLER_28_297
*1255 FILLER_28_3
*1256 FILLER_28_53
*1257 FILLER_28_61
*1258 FILLER_28_79
*1259 FILLER_28_83
*1260 FILLER_28_85
*1261 FILLER_28_97
*1262 FILLER_29_110
*1263 FILLER_29_113
*1264 FILLER_29_131
*1265 FILLER_29_143
*1266 FILLER_29_155
*1267 FILLER_29_161
*1268 FILLER_29_165
*1269 FILLER_29_169
*1270 FILLER_29_180
*1271 FILLER_29_184
*1272 FILLER_29_196
*1273 FILLER_29_200
*1274 FILLER_29_209
*1275 FILLER_29_21
*1276 FILLER_29_221
*1277 FILLER_29_225
*1278 FILLER_29_234
*1279 FILLER_29_246
*1280 FILLER_29_258
*1281 FILLER_29_270
*1282 FILLER_29_278
*1283 FILLER_29_281
*1284 FILLER_29_29
*1285 FILLER_29_293
*1286 FILLER_29_3
*1287 FILLER_29_34
*1288 FILLER_29_54
*1289 FILLER_29_57
*1290 FILLER_29_69
*1291 FILLER_29_89
*1292 FILLER_29_93
*1293 FILLER_2_117
*1294 FILLER_2_137
*1295 FILLER_2_141
*1296 FILLER_2_146
*1297 FILLER_2_150
*1298 FILLER_2_154
*1299 FILLER_2_161
*1300 FILLER_2_173
*1301 FILLER_2_185
*1302 FILLER_2_193
*1303 FILLER_2_197
*1304 FILLER_2_209
*1305 FILLER_2_22
*1306 FILLER_2_221
*1307 FILLER_2_233
*1308 FILLER_2_245
*1309 FILLER_2_251
*1310 FILLER_2_253
*1311 FILLER_2_26
*1312 FILLER_2_265
*1313 FILLER_2_277
*1314 FILLER_2_289
*1315 FILLER_2_29
*1316 FILLER_2_297
*1317 FILLER_2_3
*1318 FILLER_2_42
*1319 FILLER_2_62
*1320 FILLER_2_82
*1321 FILLER_2_85
*1322 FILLER_2_97
*1323 FILLER_30_103
*1324 FILLER_30_109
*1325 FILLER_30_126
*1326 FILLER_30_132
*1327 FILLER_30_136
*1328 FILLER_30_141
*1329 FILLER_30_159
*1330 FILLER_30_172
*1331 FILLER_30_184
*1332 FILLER_30_197
*1333 FILLER_30_203
*1334 FILLER_30_215
*1335 FILLER_30_22
*1336 FILLER_30_227
*1337 FILLER_30_238
*1338 FILLER_30_250
*1339 FILLER_30_253
*1340 FILLER_30_265
*1341 FILLER_30_272
*1342 FILLER_30_284
*1343 FILLER_30_29
*1344 FILLER_30_296
*1345 FILLER_30_3
*1346 FILLER_30_34
*1347 FILLER_30_46
*1348 FILLER_30_58
*1349 FILLER_30_70
*1350 FILLER_30_82
*1351 FILLER_30_85
*1352 FILLER_31_110
*1353 FILLER_31_113
*1354 FILLER_31_125
*1355 FILLER_31_145
*1356 FILLER_31_15
*1357 FILLER_31_157
*1358 FILLER_31_165
*1359 FILLER_31_169
*1360 FILLER_31_180
*1361 FILLER_31_193
*1362 FILLER_31_205
*1363 FILLER_31_217
*1364 FILLER_31_223
*1365 FILLER_31_225
*1366 FILLER_31_230
*1367 FILLER_31_242
*1368 FILLER_31_254
*1369 FILLER_31_266
*1370 FILLER_31_278
*1371 FILLER_31_281
*1372 FILLER_31_293
*1373 FILLER_31_3
*1374 FILLER_31_35
*1375 FILLER_31_47
*1376 FILLER_31_55
*1377 FILLER_31_57
*1378 FILLER_31_75
*1379 FILLER_31_79
*1380 FILLER_31_85
*1381 FILLER_31_89
*1382 FILLER_31_93
*1383 FILLER_32_110
*1384 FILLER_32_114
*1385 FILLER_32_126
*1386 FILLER_32_138
*1387 FILLER_32_141
*1388 FILLER_32_153
*1389 FILLER_32_165
*1390 FILLER_32_177
*1391 FILLER_32_189
*1392 FILLER_32_195
*1393 FILLER_32_197
*1394 FILLER_32_205
*1395 FILLER_32_21
*1396 FILLER_32_216
*1397 FILLER_32_228
*1398 FILLER_32_240
*1399 FILLER_32_253
*1400 FILLER_32_265
*1401 FILLER_32_27
*1402 FILLER_32_277
*1403 FILLER_32_289
*1404 FILLER_32_29
*1405 FILLER_32_297
*1406 FILLER_32_3
*1407 FILLER_32_47
*1408 FILLER_32_62
*1409 FILLER_32_82
*1410 FILLER_32_85
*1411 FILLER_32_98
*1412 FILLER_33_106
*1413 FILLER_33_113
*1414 FILLER_33_121
*1415 FILLER_33_140
*1416 FILLER_33_152
*1417 FILLER_33_156
*1418 FILLER_33_166
*1419 FILLER_33_169
*1420 FILLER_33_181
*1421 FILLER_33_193
*1422 FILLER_33_208
*1423 FILLER_33_220
*1424 FILLER_33_225
*1425 FILLER_33_237
*1426 FILLER_33_249
*1427 FILLER_33_25
*1428 FILLER_33_261
*1429 FILLER_33_273
*1430 FILLER_33_279
*1431 FILLER_33_281
*1432 FILLER_33_293
*1433 FILLER_33_3
*1434 FILLER_33_45
*1435 FILLER_33_53
*1436 FILLER_33_57
*1437 FILLER_33_69
*1438 FILLER_33_86
*1439 FILLER_34_101
*1440 FILLER_34_121
*1441 FILLER_34_133
*1442 FILLER_34_139
*1443 FILLER_34_141
*1444 FILLER_34_159
*1445 FILLER_34_163
*1446 FILLER_34_169
*1447 FILLER_34_181
*1448 FILLER_34_185
*1449 FILLER_34_189
*1450 FILLER_34_195
*1451 FILLER_34_197
*1452 FILLER_34_204
*1453 FILLER_34_216
*1454 FILLER_34_224
*1455 FILLER_34_237
*1456 FILLER_34_250
*1457 FILLER_34_253
*1458 FILLER_34_26
*1459 FILLER_34_262
*1460 FILLER_34_274
*1461 FILLER_34_286
*1462 FILLER_34_29
*1463 FILLER_34_298
*1464 FILLER_34_3
*1465 FILLER_34_40
*1466 FILLER_34_64
*1467 FILLER_34_72
*1468 FILLER_34_82
*1469 FILLER_34_85
*1470 FILLER_34_91
*1471 FILLER_35_101
*1472 FILLER_35_109
*1473 FILLER_35_113
*1474 FILLER_35_125
*1475 FILLER_35_137
*1476 FILLER_35_149
*1477 FILLER_35_15
*1478 FILLER_35_155
*1479 FILLER_35_166
*1480 FILLER_35_169
*1481 FILLER_35_181
*1482 FILLER_35_185
*1483 FILLER_35_195
*1484 FILLER_35_212
*1485 FILLER_35_225
*1486 FILLER_35_237
*1487 FILLER_35_248
*1488 FILLER_35_260
*1489 FILLER_35_27
*1490 FILLER_35_272
*1491 FILLER_35_281
*1492 FILLER_35_293
*1493 FILLER_35_3
*1494 FILLER_35_39
*1495 FILLER_35_51
*1496 FILLER_35_55
*1497 FILLER_35_57
*1498 FILLER_35_65
*1499 FILLER_35_75
*1500 FILLER_35_83
*1501 FILLER_36_114
*1502 FILLER_36_126
*1503 FILLER_36_138
*1504 FILLER_36_141
*1505 FILLER_36_153
*1506 FILLER_36_165
*1507 FILLER_36_177
*1508 FILLER_36_193
*1509 FILLER_36_197
*1510 FILLER_36_205
*1511 FILLER_36_21
*1512 FILLER_36_210
*1513 FILLER_36_222
*1514 FILLER_36_234
*1515 FILLER_36_246
*1516 FILLER_36_253
*1517 FILLER_36_265
*1518 FILLER_36_27
*1519 FILLER_36_277
*1520 FILLER_36_289
*1521 FILLER_36_29
*1522 FILLER_36_297
*1523 FILLER_36_3
*1524 FILLER_36_40
*1525 FILLER_36_44
*1526 FILLER_36_62
*1527 FILLER_36_82
*1528 FILLER_36_85
*1529 FILLER_36_89
*1530 FILLER_36_93
*1531 FILLER_36_97
*1532 FILLER_37_100
*1533 FILLER_37_107
*1534 FILLER_37_111
*1535 FILLER_37_113
*1536 FILLER_37_125
*1537 FILLER_37_137
*1538 FILLER_37_155
*1539 FILLER_37_167
*1540 FILLER_37_169
*1541 FILLER_37_181
*1542 FILLER_37_193
*1543 FILLER_37_205
*1544 FILLER_37_21
*1545 FILLER_37_217
*1546 FILLER_37_223
*1547 FILLER_37_225
*1548 FILLER_37_237
*1549 FILLER_37_249
*1550 FILLER_37_261
*1551 FILLER_37_273
*1552 FILLER_37_279
*1553 FILLER_37_281
*1554 FILLER_37_29
*1555 FILLER_37_293
*1556 FILLER_37_3
*1557 FILLER_37_34
*1558 FILLER_37_54
*1559 FILLER_37_57
*1560 FILLER_37_63
*1561 FILLER_37_84
*1562 FILLER_37_90
*1563 FILLER_38_103
*1564 FILLER_38_111
*1565 FILLER_38_128
*1566 FILLER_38_141
*1567 FILLER_38_159
*1568 FILLER_38_163
*1569 FILLER_38_167
*1570 FILLER_38_189
*1571 FILLER_38_195
*1572 FILLER_38_197
*1573 FILLER_38_209
*1574 FILLER_38_21
*1575 FILLER_38_220
*1576 FILLER_38_232
*1577 FILLER_38_244
*1578 FILLER_38_253
*1579 FILLER_38_265
*1580 FILLER_38_27
*1581 FILLER_38_277
*1582 FILLER_38_289
*1583 FILLER_38_29
*1584 FILLER_38_297
*1585 FILLER_38_3
*1586 FILLER_38_33
*1587 FILLER_38_43
*1588 FILLER_38_47
*1589 FILLER_38_65
*1590 FILLER_38_72
*1591 FILLER_38_76
*1592 FILLER_38_80
*1593 FILLER_38_85
*1594 FILLER_39_107
*1595 FILLER_39_111
*1596 FILLER_39_113
*1597 FILLER_39_125
*1598 FILLER_39_133
*1599 FILLER_39_138
*1600 FILLER_39_15
*1601 FILLER_39_151
*1602 FILLER_39_163
*1603 FILLER_39_167
*1604 FILLER_39_169
*1605 FILLER_39_180
*1606 FILLER_39_192
*1607 FILLER_39_205
*1608 FILLER_39_21
*1609 FILLER_39_217
*1610 FILLER_39_223
*1611 FILLER_39_225
*1612 FILLER_39_24
*1613 FILLER_39_243
*1614 FILLER_39_255
*1615 FILLER_39_267
*1616 FILLER_39_279
*1617 FILLER_39_281
*1618 FILLER_39_293
*1619 FILLER_39_3
*1620 FILLER_39_42
*1621 FILLER_39_50
*1622 FILLER_39_54
*1623 FILLER_39_57
*1624 FILLER_39_75
*1625 FILLER_39_86
*1626 FILLER_39_93
*1627 FILLER_39_97
*1628 FILLER_3_105
*1629 FILLER_3_111
*1630 FILLER_3_113
*1631 FILLER_3_125
*1632 FILLER_3_131
*1633 FILLER_3_148
*1634 FILLER_3_163
*1635 FILLER_3_167
*1636 FILLER_3_169
*1637 FILLER_3_177
*1638 FILLER_3_189
*1639 FILLER_3_200
*1640 FILLER_3_208
*1641 FILLER_3_21
*1642 FILLER_3_214
*1643 FILLER_3_222
*1644 FILLER_3_225
*1645 FILLER_3_230
*1646 FILLER_3_242
*1647 FILLER_3_25
*1648 FILLER_3_250
*1649 FILLER_3_256
*1650 FILLER_3_268
*1651 FILLER_3_278
*1652 FILLER_3_281
*1653 FILLER_3_293
*1654 FILLER_3_3
*1655 FILLER_3_53
*1656 FILLER_3_57
*1657 FILLER_3_61
*1658 FILLER_3_78
*1659 FILLER_3_82
*1660 FILLER_3_88
*1661 FILLER_40_103
*1662 FILLER_40_113
*1663 FILLER_40_125
*1664 FILLER_40_133
*1665 FILLER_40_138
*1666 FILLER_40_141
*1667 FILLER_40_15
*1668 FILLER_40_150
*1669 FILLER_40_163
*1670 FILLER_40_167
*1671 FILLER_40_177
*1672 FILLER_40_189
*1673 FILLER_40_193
*1674 FILLER_40_197
*1675 FILLER_40_203
*1676 FILLER_40_210
*1677 FILLER_40_222
*1678 FILLER_40_234
*1679 FILLER_40_246
*1680 FILLER_40_253
*1681 FILLER_40_259
*1682 FILLER_40_26
*1683 FILLER_40_270
*1684 FILLER_40_282
*1685 FILLER_40_29
*1686 FILLER_40_294
*1687 FILLER_40_298
*1688 FILLER_40_3
*1689 FILLER_40_37
*1690 FILLER_40_45
*1691 FILLER_40_56
*1692 FILLER_40_60
*1693 FILLER_40_70
*1694 FILLER_40_79
*1695 FILLER_40_83
*1696 FILLER_40_85
*1697 FILLER_40_90
*1698 FILLER_40_97
*1699 FILLER_41_110
*1700 FILLER_41_113
*1701 FILLER_41_118
*1702 FILLER_41_135
*1703 FILLER_41_147
*1704 FILLER_41_15
*1705 FILLER_41_153
*1706 FILLER_41_165
*1707 FILLER_41_169
*1708 FILLER_41_181
*1709 FILLER_41_193
*1710 FILLER_41_207
*1711 FILLER_41_22
*1712 FILLER_41_220
*1713 FILLER_41_225
*1714 FILLER_41_237
*1715 FILLER_41_249
*1716 FILLER_41_261
*1717 FILLER_41_273
*1718 FILLER_41_279
*1719 FILLER_41_281
*1720 FILLER_41_29
*1721 FILLER_41_293
*1722 FILLER_41_3
*1723 FILLER_41_36
*1724 FILLER_41_40
*1725 FILLER_41_51
*1726 FILLER_41_55
*1727 FILLER_41_57
*1728 FILLER_41_72
*1729 FILLER_41_85