*SPEF "ieee 1481-1999"
*DESIGN "phasenoisepon_seven_segment_seconds"
*DATE "11:11:11 Fri 11 11, 1111"
*VENDOR "OpenRCX"
*PROGRAM "Parallel Extraction"
*VERSION "1.0"
*DESIGN_FLOW "NAME_SCOPE LOCAL" "PIN_CAP NONE"
*DIVIDER /
*DELIMITER :
*BUS_DELIMITER []
*T_UNIT 1 NS
*C_UNIT 1 PF
*R_UNIT 1 OHM
*L_UNIT 1 HENRY

*NAME_MAP
*1 io_in[0]
*2 io_in[1]
*3 io_in[2]
*4 io_in[3]
*5 io_in[4]
*6 io_in[5]
*7 io_in[6]
*8 io_in[7]
*9 io_out[0]
*10 io_out[1]
*11 io_out[2]
*12 io_out[3]
*13 io_out[4]
*14 io_out[5]
*15 io_out[6]
*16 io_out[7]
*19 _000_
*20 _001_
*21 _002_
*22 _003_
*23 _004_
*24 _005_
*25 _006_
*26 _007_
*27 _008_
*28 _009_
*29 _010_
*30 _011_
*31 _012_
*32 _013_
*33 _014_
*34 _015_
*35 _016_
*36 _017_
*37 _018_
*38 _019_
*39 _020_
*40 _021_
*41 _022_
*42 _023_
*43 _024_
*44 _025_
*45 _026_
*46 _027_
*47 _028_
*48 _029_
*49 _030_
*50 _031_
*51 _032_
*52 _033_
*53 _034_
*54 _035_
*55 _036_
*56 _037_
*57 _038_
*58 _039_
*59 _040_
*60 _041_
*61 _042_
*62 _043_
*63 _044_
*64 _045_
*65 _046_
*66 _047_
*67 _048_
*68 _049_
*69 _050_
*70 _051_
*71 _052_
*72 _053_
*73 _054_
*74 _055_
*75 _056_
*76 _057_
*77 _058_
*78 _059_
*79 _060_
*80 _061_
*81 _062_
*82 _063_
*83 _064_
*84 _065_
*85 _066_
*86 _067_
*87 _068_
*88 _069_
*89 _070_
*90 _071_
*91 _072_
*92 _073_
*93 _074_
*94 _075_
*95 clknet_0_io_in[0]
*96 clknet_1_0__leaf_io_in[0]
*97 clknet_1_1__leaf_io_in[0]
*98 net1
*99 net2
*100 net3
*101 net4
*102 net5
*103 net6
*104 net7
*105 nibble_high\[0\]
*106 nibble_high\[1\]
*107 nibble_high\[2\]
*108 nibble_high\[3\]
*109 nibble_low\[0\]
*110 nibble_low\[1\]
*111 nibble_low\[2\]
*112 nibble_low\[3\]
*113 FILLER_0_109
*114 FILLER_0_113
*115 FILLER_0_125
*116 FILLER_0_137
*117 FILLER_0_141
*118 FILLER_0_153
*119 FILLER_0_165
*120 FILLER_0_169
*121 FILLER_0_181
*122 FILLER_0_193
*123 FILLER_0_197
*124 FILLER_0_209
*125 FILLER_0_221
*126 FILLER_0_225
*127 FILLER_0_237
*128 FILLER_0_249
*129 FILLER_0_25
*130 FILLER_0_253
*131 FILLER_0_265
*132 FILLER_0_277
*133 FILLER_0_281
*134 FILLER_0_29
*135 FILLER_0_293
*136 FILLER_0_3
*137 FILLER_0_47
*138 FILLER_0_55
*139 FILLER_0_57
*140 FILLER_0_75
*141 FILLER_0_83
*142 FILLER_0_85
*143 FILLER_0_97
*144 FILLER_10_109
*145 FILLER_10_121
*146 FILLER_10_13
*147 FILLER_10_133
*148 FILLER_10_139
*149 FILLER_10_141
*150 FILLER_10_153
*151 FILLER_10_165
*152 FILLER_10_177
*153 FILLER_10_189
*154 FILLER_10_195
*155 FILLER_10_197
*156 FILLER_10_209
*157 FILLER_10_21
*158 FILLER_10_221
*159 FILLER_10_233
*160 FILLER_10_245
*161 FILLER_10_251
*162 FILLER_10_253
*163 FILLER_10_26
*164 FILLER_10_265
*165 FILLER_10_277
*166 FILLER_10_289
*167 FILLER_10_29
*168 FILLER_10_297
*169 FILLER_10_3
*170 FILLER_10_34
*171 FILLER_10_46
*172 FILLER_10_51
*173 FILLER_10_63
*174 FILLER_10_75
*175 FILLER_10_83
*176 FILLER_10_85
*177 FILLER_10_97
*178 FILLER_11_105
*179 FILLER_11_111
*180 FILLER_11_113
*181 FILLER_11_125
*182 FILLER_11_137
*183 FILLER_11_149
*184 FILLER_11_161
*185 FILLER_11_167
*186 FILLER_11_169
*187 FILLER_11_18
*188 FILLER_11_181
*189 FILLER_11_193
*190 FILLER_11_205
*191 FILLER_11_217
*192 FILLER_11_22
*193 FILLER_11_223
*194 FILLER_11_225
*195 FILLER_11_237
*196 FILLER_11_249
*197 FILLER_11_261
*198 FILLER_11_27
*199 FILLER_11_273
*200 FILLER_11_279
*201 FILLER_11_281
*202 FILLER_11_293
*203 FILLER_11_3
*204 FILLER_11_42
*205 FILLER_11_51
*206 FILLER_11_55
*207 FILLER_11_57
*208 FILLER_11_66
*209 FILLER_11_81
*210 FILLER_11_9
*211 FILLER_11_93
*212 FILLER_12_109
*213 FILLER_12_113
*214 FILLER_12_125
*215 FILLER_12_137
*216 FILLER_12_141
*217 FILLER_12_15
*218 FILLER_12_153
*219 FILLER_12_165
*220 FILLER_12_177
*221 FILLER_12_189
*222 FILLER_12_195
*223 FILLER_12_197
*224 FILLER_12_209
*225 FILLER_12_221
*226 FILLER_12_23
*227 FILLER_12_233
*228 FILLER_12_245
*229 FILLER_12_251
*230 FILLER_12_253
*231 FILLER_12_265
*232 FILLER_12_27
*233 FILLER_12_277
*234 FILLER_12_289
*235 FILLER_12_29
*236 FILLER_12_297
*237 FILLER_12_3
*238 FILLER_12_34
*239 FILLER_12_42
*240 FILLER_12_46
*241 FILLER_12_54
*242 FILLER_12_63
*243 FILLER_12_75
*244 FILLER_12_83
*245 FILLER_12_85
*246 FILLER_12_97
*247 FILLER_13_10
*248 FILLER_13_108
*249 FILLER_13_113
*250 FILLER_13_125
*251 FILLER_13_137
*252 FILLER_13_14
*253 FILLER_13_149
*254 FILLER_13_161
*255 FILLER_13_167
*256 FILLER_13_169
*257 FILLER_13_18
*258 FILLER_13_181
*259 FILLER_13_193
*260 FILLER_13_205
*261 FILLER_13_217
*262 FILLER_13_223
*263 FILLER_13_225
*264 FILLER_13_237
*265 FILLER_13_249
*266 FILLER_13_26
*267 FILLER_13_261
*268 FILLER_13_273
*269 FILLER_13_279
*270 FILLER_13_281
*271 FILLER_13_293
*272 FILLER_13_3
*273 FILLER_13_30
*274 FILLER_13_38
*275 FILLER_13_54
*276 FILLER_13_57
*277 FILLER_13_63
*278 FILLER_13_72
*279 FILLER_13_84
*280 FILLER_13_88
*281 FILLER_13_96
*282 FILLER_14_107
*283 FILLER_14_119
*284 FILLER_14_131
*285 FILLER_14_139
*286 FILLER_14_14
*287 FILLER_14_141
*288 FILLER_14_153
*289 FILLER_14_165
*290 FILLER_14_177
*291 FILLER_14_189
*292 FILLER_14_195
*293 FILLER_14_197
*294 FILLER_14_209
*295 FILLER_14_221
*296 FILLER_14_233
*297 FILLER_14_24
*298 FILLER_14_245
*299 FILLER_14_251
*300 FILLER_14_253
*301 FILLER_14_265
*302 FILLER_14_277
*303 FILLER_14_289
*304 FILLER_14_29
*305 FILLER_14_297
*306 FILLER_14_3
*307 FILLER_14_40
*308 FILLER_14_44
*309 FILLER_14_54
*310 FILLER_14_62
*311 FILLER_14_77
*312 FILLER_14_83
*313 FILLER_14_85
*314 FILLER_14_95
*315 FILLER_15_105
*316 FILLER_15_111
*317 FILLER_15_113
*318 FILLER_15_125
*319 FILLER_15_137
*320 FILLER_15_149
*321 FILLER_15_16
*322 FILLER_15_161
*323 FILLER_15_167
*324 FILLER_15_169
*325 FILLER_15_181
*326 FILLER_15_193
*327 FILLER_15_205
*328 FILLER_15_217
*329 FILLER_15_22
*330 FILLER_15_223
*331 FILLER_15_225
*332 FILLER_15_237
*333 FILLER_15_249
*334 FILLER_15_261
*335 FILLER_15_273
*336 FILLER_15_279
*337 FILLER_15_281
*338 FILLER_15_29
*339 FILLER_15_293
*340 FILLER_15_3
*341 FILLER_15_33
*342 FILLER_15_37
*343 FILLER_15_46
*344 FILLER_15_54
*345 FILLER_15_57
*346 FILLER_15_69
*347 FILLER_15_8
*348 FILLER_15_81
*349 FILLER_15_93
*350 FILLER_16_109
*351 FILLER_16_121
*352 FILLER_16_133
*353 FILLER_16_139
*354 FILLER_16_14
*355 FILLER_16_141
*356 FILLER_16_153
*357 FILLER_16_165
*358 FILLER_16_177
*359 FILLER_16_18
*360 FILLER_16_189
*361 FILLER_16_195
*362 FILLER_16_197
*363 FILLER_16_209
*364 FILLER_16_221
*365 FILLER_16_233
*366 FILLER_16_245
*367 FILLER_16_25
*368 FILLER_16_251
*369 FILLER_16_253
*370 FILLER_16_265
*371 FILLER_16_277
*372 FILLER_16_289
*373 FILLER_16_29
*374 FILLER_16_297
*375 FILLER_16_3
*376 FILLER_16_41
*377 FILLER_16_45
*378 FILLER_16_49
*379 FILLER_16_61
*380 FILLER_16_67
*381 FILLER_16_79
*382 FILLER_16_83
*383 FILLER_16_85
*384 FILLER_16_97
*385 FILLER_17_111
*386 FILLER_17_113
*387 FILLER_17_125
*388 FILLER_17_13
*389 FILLER_17_137
*390 FILLER_17_149
*391 FILLER_17_161
*392 FILLER_17_167
*393 FILLER_17_169
*394 FILLER_17_181
*395 FILLER_17_193
*396 FILLER_17_205
*397 FILLER_17_217
*398 FILLER_17_223
*399 FILLER_17_225
*400 FILLER_17_237
*401 FILLER_17_249
*402 FILLER_17_261
*403 FILLER_17_273
*404 FILLER_17_279
*405 FILLER_17_281
*406 FILLER_17_29
*407 FILLER_17_293
*408 FILLER_17_3
*409 FILLER_17_33
*410 FILLER_17_38
*411 FILLER_17_50
*412 FILLER_17_57
*413 FILLER_17_63
*414 FILLER_17_7
*415 FILLER_17_75
*416 FILLER_17_87
*417 FILLER_17_99
*418 FILLER_18_104
*419 FILLER_18_11
*420 FILLER_18_116
*421 FILLER_18_128
*422 FILLER_18_141
*423 FILLER_18_153
*424 FILLER_18_165
*425 FILLER_18_177
*426 FILLER_18_189
*427 FILLER_18_195
*428 FILLER_18_197
*429 FILLER_18_20
*430 FILLER_18_209
*431 FILLER_18_221
*432 FILLER_18_233
*433 FILLER_18_245
*434 FILLER_18_251
*435 FILLER_18_253
*436 FILLER_18_265
*437 FILLER_18_277
*438 FILLER_18_289
*439 FILLER_18_29
*440 FILLER_18_297
*441 FILLER_18_3
*442 FILLER_18_36
*443 FILLER_18_40
*444 FILLER_18_48
*445 FILLER_18_56
*446 FILLER_18_65
*447 FILLER_18_74
*448 FILLER_18_82
*449 FILLER_18_85
*450 FILLER_18_92
*451 FILLER_19_105
*452 FILLER_19_111
*453 FILLER_19_113
*454 FILLER_19_125
*455 FILLER_19_137
*456 FILLER_19_149
*457 FILLER_19_16
*458 FILLER_19_161
*459 FILLER_19_167
*460 FILLER_19_169
*461 FILLER_19_181
*462 FILLER_19_193
*463 FILLER_19_205
*464 FILLER_19_217
*465 FILLER_19_223
*466 FILLER_19_225
*467 FILLER_19_23
*468 FILLER_19_237
*469 FILLER_19_249
*470 FILLER_19_261
*471 FILLER_19_273
*472 FILLER_19_279
*473 FILLER_19_281
*474 FILLER_19_293
*475 FILLER_19_3
*476 FILLER_19_31
*477 FILLER_19_35
*478 FILLER_19_47
*479 FILLER_19_55
*480 FILLER_19_57
*481 FILLER_19_69
*482 FILLER_19_8
*483 FILLER_19_81
*484 FILLER_19_93
*485 FILLER_1_105
*486 FILLER_1_111
*487 FILLER_1_113
*488 FILLER_1_125
*489 FILLER_1_137
*490 FILLER_1_149
*491 FILLER_1_161
*492 FILLER_1_167
*493 FILLER_1_169
*494 FILLER_1_181
*495 FILLER_1_193
*496 FILLER_1_205
*497 FILLER_1_217
*498 FILLER_1_22
*499 FILLER_1_223
*500 FILLER_1_225
*501 FILLER_1_237
*502 FILLER_1_249
*503 FILLER_1_261
*504 FILLER_1_273
*505 FILLER_1_279
*506 FILLER_1_28
*507 FILLER_1_281
*508 FILLER_1_293
*509 FILLER_1_3
*510 FILLER_1_46
*511 FILLER_1_54
*512 FILLER_1_57
*513 FILLER_1_69
*514 FILLER_1_81
*515 FILLER_1_93
*516 FILLER_20_109
*517 FILLER_20_12
*518 FILLER_20_121
*519 FILLER_20_133
*520 FILLER_20_139
*521 FILLER_20_141
*522 FILLER_20_153
*523 FILLER_20_165
*524 FILLER_20_177
*525 FILLER_20_189
*526 FILLER_20_195
*527 FILLER_20_197
*528 FILLER_20_209
*529 FILLER_20_21
*530 FILLER_20_221
*531 FILLER_20_233
*532 FILLER_20_245
*533 FILLER_20_251
*534 FILLER_20_253
*535 FILLER_20_265
*536 FILLER_20_27
*537 FILLER_20_277
*538 FILLER_20_289
*539 FILLER_20_29
*540 FILLER_20_297
*541 FILLER_20_3
*542 FILLER_20_36
*543 FILLER_20_44
*544 FILLER_20_52
*545 FILLER_20_60
*546 FILLER_20_67
*547 FILLER_20_79
*548 FILLER_20_83
*549 FILLER_20_85
*550 FILLER_20_97
*551 FILLER_21_105
*552 FILLER_21_111
*553 FILLER_21_113
*554 FILLER_21_125
*555 FILLER_21_137
*556 FILLER_21_149
*557 FILLER_21_15
*558 FILLER_21_161
*559 FILLER_21_167
*560 FILLER_21_169
*561 FILLER_21_181
*562 FILLER_21_193
*563 FILLER_21_205
*564 FILLER_21_217
*565 FILLER_21_223
*566 FILLER_21_225
*567 FILLER_21_237
*568 FILLER_21_249
*569 FILLER_21_261
*570 FILLER_21_273
*571 FILLER_21_279
*572 FILLER_21_281
*573 FILLER_21_293
*574 FILLER_21_3
*575 FILLER_21_35
*576 FILLER_21_41
*577 FILLER_21_50
*578 FILLER_21_57
*579 FILLER_21_69
*580 FILLER_21_81
*581 FILLER_21_93
*582 FILLER_22_109
*583 FILLER_22_121
*584 FILLER_22_133
*585 FILLER_22_139
*586 FILLER_22_141
*587 FILLER_22_153
*588 FILLER_22_165
*589 FILLER_22_177
*590 FILLER_22_189
*591 FILLER_22_195
*592 FILLER_22_197
*593 FILLER_22_20
*594 FILLER_22_209
*595 FILLER_22_221
*596 FILLER_22_233
*597 FILLER_22_245
*598 FILLER_22_251
*599 FILLER_22_253
*600 FILLER_22_265
*601 FILLER_22_277
*602 FILLER_22_289
*603 FILLER_22_29
*604 FILLER_22_297
*605 FILLER_22_3
*606 FILLER_22_37
*607 FILLER_22_49
*608 FILLER_22_59
*609 FILLER_22_67
*610 FILLER_22_73
*611 FILLER_22_8
*612 FILLER_22_81
*613 FILLER_22_85
*614 FILLER_22_97
*615 FILLER_23_105
*616 FILLER_23_111
*617 FILLER_23_113
*618 FILLER_23_125
*619 FILLER_23_137
*620 FILLER_23_149
*621 FILLER_23_15
*622 FILLER_23_161
*623 FILLER_23_167
*624 FILLER_23_169
*625 FILLER_23_181
*626 FILLER_23_193
*627 FILLER_23_205
*628 FILLER_23_217
*629 FILLER_23_223
*630 FILLER_23_225
*631 FILLER_23_237
*632 FILLER_23_249
*633 FILLER_23_261
*634 FILLER_23_27
*635 FILLER_23_273
*636 FILLER_23_279
*637 FILLER_23_281
*638 FILLER_23_293
*639 FILLER_23_3
*640 FILLER_23_39
*641 FILLER_23_51
*642 FILLER_23_55
*643 FILLER_23_57
*644 FILLER_23_69
*645 FILLER_23_81
*646 FILLER_23_93
*647 FILLER_24_109
*648 FILLER_24_121
*649 FILLER_24_133
*650 FILLER_24_139
*651 FILLER_24_141
*652 FILLER_24_153
*653 FILLER_24_165
*654 FILLER_24_177
*655 FILLER_24_189
*656 FILLER_24_195
*657 FILLER_24_197
*658 FILLER_24_20
*659 FILLER_24_209
*660 FILLER_24_221
*661 FILLER_24_233
*662 FILLER_24_245
*663 FILLER_24_251
*664 FILLER_24_253
*665 FILLER_24_265
*666 FILLER_24_277
*667 FILLER_24_289
*668 FILLER_24_29
*669 FILLER_24_297
*670 FILLER_24_3
*671 FILLER_24_41
*672 FILLER_24_53
*673 FILLER_24_65
*674 FILLER_24_77
*675 FILLER_24_8
*676 FILLER_24_83
*677 FILLER_24_85
*678 FILLER_24_97
*679 FILLER_25_105
*680 FILLER_25_111
*681 FILLER_25_113
*682 FILLER_25_125
*683 FILLER_25_137
*684 FILLER_25_149
*685 FILLER_25_15
*686 FILLER_25_161
*687 FILLER_25_167
*688 FILLER_25_169
*689 FILLER_25_181
*690 FILLER_25_193
*691 FILLER_25_205
*692 FILLER_25_217
*693 FILLER_25_223
*694 FILLER_25_225
*695 FILLER_25_237
*696 FILLER_25_249
*697 FILLER_25_261
*698 FILLER_25_27
*699 FILLER_25_273
*700 FILLER_25_279
*701 FILLER_25_281
*702 FILLER_25_293
*703 FILLER_25_3
*704 FILLER_25_39
*705 FILLER_25_51
*706 FILLER_25_55
*707 FILLER_25_57
*708 FILLER_25_69
*709 FILLER_25_81
*710 FILLER_25_93
*711 FILLER_26_109
*712 FILLER_26_121
*713 FILLER_26_133
*714 FILLER_26_139
*715 FILLER_26_141
*716 FILLER_26_153
*717 FILLER_26_165
*718 FILLER_26_177
*719 FILLER_26_189
*720 FILLER_26_195
*721 FILLER_26_197
*722 FILLER_26_209
*723 FILLER_26_21
*724 FILLER_26_221
*725 FILLER_26_233
*726 FILLER_26_245
*727 FILLER_26_251
*728 FILLER_26_253
*729 FILLER_26_265
*730 FILLER_26_27
*731 FILLER_26_277
*732 FILLER_26_289
*733 FILLER_26_29
*734 FILLER_26_297
*735 FILLER_26_3
*736 FILLER_26_41
*737 FILLER_26_53
*738 FILLER_26_65
*739 FILLER_26_77
*740 FILLER_26_83
*741 FILLER_26_85
*742 FILLER_26_9
*743 FILLER_26_97
*744 FILLER_27_105
*745 FILLER_27_111
*746 FILLER_27_113
*747 FILLER_27_125
*748 FILLER_27_137
*749 FILLER_27_149
*750 FILLER_27_161
*751 FILLER_27_167
*752 FILLER_27_169
*753 FILLER_27_181
*754 FILLER_27_193
*755 FILLER_27_20
*756 FILLER_27_205
*757 FILLER_27_217
*758 FILLER_27_223
*759 FILLER_27_225
*760 FILLER_27_237
*761 FILLER_27_249
*762 FILLER_27_261
*763 FILLER_27_273
*764 FILLER_27_279
*765 FILLER_27_281
*766 FILLER_27_293
*767 FILLER_27_3
*768 FILLER_27_32
*769 FILLER_27_44
*770 FILLER_27_57
*771 FILLER_27_69
*772 FILLER_27_8
*773 FILLER_27_81
*774 FILLER_27_93
*775 FILLER_28_109
*776 FILLER_28_121
*777 FILLER_28_133
*778 FILLER_28_139
*779 FILLER_28_141
*780 FILLER_28_15
*781 FILLER_28_153
*782 FILLER_28_165
*783 FILLER_28_177
*784 FILLER_28_189
*785 FILLER_28_195
*786 FILLER_28_197
*787 FILLER_28_209
*788 FILLER_28_221
*789 FILLER_28_233
*790 FILLER_28_245
*791 FILLER_28_251
*792 FILLER_28_253
*793 FILLER_28_265
*794 FILLER_28_27
*795 FILLER_28_277
*796 FILLER_28_289
*797 FILLER_28_29
*798 FILLER_28_297
*799 FILLER_28_3
*800 FILLER_28_41
*801 FILLER_28_53
*802 FILLER_28_65
*803 FILLER_28_77
*804 FILLER_28_83
*805 FILLER_28_85
*806 FILLER_28_97
*807 FILLER_29_105
*808 FILLER_29_111
*809 FILLER_29_113
*810 FILLER_29_125
*811 FILLER_29_137
*812 FILLER_29_149
*813 FILLER_29_15
*814 FILLER_29_161
*815 FILLER_29_167
*816 FILLER_29_169
*817 FILLER_29_181
*818 FILLER_29_193
*819 FILLER_29_205
*820 FILLER_29_217
*821 FILLER_29_223
*822 FILLER_29_225
*823 FILLER_29_237
*824 FILLER_29_249
*825 FILLER_29_261
*826 FILLER_29_27
*827 FILLER_29_273
*828 FILLER_29_279
*829 FILLER_29_281
*830 FILLER_29_293
*831 FILLER_29_3
*832 FILLER_29_39
*833 FILLER_29_51
*834 FILLER_29_55
*835 FILLER_29_57
*836 FILLER_29_69
*837 FILLER_29_81
*838 FILLER_29_93
*839 FILLER_2_109
*840 FILLER_2_121
*841 FILLER_2_133
*842 FILLER_2_139
*843 FILLER_2_141
*844 FILLER_2_153
*845 FILLER_2_165
*846 FILLER_2_177
*847 FILLER_2_189
*848 FILLER_2_195
*849 FILLER_2_197
*850 FILLER_2_209
*851 FILLER_2_221
*852 FILLER_2_233
*853 FILLER_2_245
*854 FILLER_2_251
*855 FILLER_2_253
*856 FILLER_2_26
*857 FILLER_2_265
*858 FILLER_2_277
*859 FILLER_2_289
*860 FILLER_2_29
*861 FILLER_2_297
*862 FILLER_2_3
*863 FILLER_2_48
*864 FILLER_2_56
*865 FILLER_2_61
*866 FILLER_2_73
*867 FILLER_2_81
*868 FILLER_2_85
*869 FILLER_2_97
*870 FILLER_30_109
*871 FILLER_30_121
*872 FILLER_30_133
*873 FILLER_30_139
*874 FILLER_30_141
*875 FILLER_30_15
*876 FILLER_30_153
*877 FILLER_30_165
*878 FILLER_30_177
*879 FILLER_30_189
*880 FILLER_30_195
*881 FILLER_30_197
*882 FILLER_30_209
*883 FILLER_30_221
*884 FILLER_30_233
*885 FILLER_30_245
*886 FILLER_30_251
*887 FILLER_30_253
*888 FILLER_30_265
*889 FILLER_30_27
*890 FILLER_30_277
*891 FILLER_30_289
*892 FILLER_30_29
*893 FILLER_30_297
*894 FILLER_30_3
*895 FILLER_30_41
*896 FILLER_30_53
*897 FILLER_30_65
*898 FILLER_30_77
*899 FILLER_30_83
*900 FILLER_30_85
*901 FILLER_30_97
*902 FILLER_31_105
*903 FILLER_31_111
*904 FILLER_31_113
*905 FILLER_31_125
*906 FILLER_31_137
*907 FILLER_31_149
*908 FILLER_31_15
*909 FILLER_31_161
*910 FILLER_31_167
*911 FILLER_31_169
*912 FILLER_31_181
*913 FILLER_31_193
*914 FILLER_31_205
*915 FILLER_31_217
*916 FILLER_31_223
*917 FILLER_31_225
*918 FILLER_31_237
*919 FILLER_31_249
*920 FILLER_31_261
*921 FILLER_31_27
*922 FILLER_31_273
*923 FILLER_31_279
*924 FILLER_31_281
*925 FILLER_31_293
*926 FILLER_31_3
*927 FILLER_31_39
*928 FILLER_31_51
*929 FILLER_31_55
*930 FILLER_31_57
*931 FILLER_31_69
*932 FILLER_31_81
*933 FILLER_31_93
*934 FILLER_32_109
*935 FILLER_32_121
*936 FILLER_32_133
*937 FILLER_32_139
*938 FILLER_32_141
*939 FILLER_32_15
*940 FILLER_32_153
*941 FILLER_32_165
*942 FILLER_32_177
*943 FILLER_32_189
*944 FILLER_32_195
*945 FILLER_32_197
*946 FILLER_32_209
*947 FILLER_32_221
*948 FILLER_32_233
*949 FILLER_32_245
*950 FILLER_32_251
*951 FILLER_32_253
*952 FILLER_32_265
*953 FILLER_32_27
*954 FILLER_32_277
*955 FILLER_32_289
*956 FILLER_32_29
*957 FILLER_32_297
*958 FILLER_32_3
*959 FILLER_32_41
*960 FILLER_32_53
*961 FILLER_32_65
*962 FILLER_32_77
*963 FILLER_32_83
*964 FILLER_32_85
*965 FILLER_32_97
*966 FILLER_33_105
*967 FILLER_33_111
*968 FILLER_33_113
*969 FILLER_33_125
*970 FILLER_33_137
*971 FILLER_33_149
*972 FILLER_33_15
*973 FILLER_33_161
*974 FILLER_33_167
*975 FILLER_33_169
*976 FILLER_33_181
*977 FILLER_33_193
*978 FILLER_33_205
*979 FILLER_33_217
*980 FILLER_33_223
*981 FILLER_33_225
*982 FILLER_33_237
*983 FILLER_33_249
*984 FILLER_33_261
*985 FILLER_33_27
*986 FILLER_33_273
*987 FILLER_33_279
*988 FILLER_33_281
*989 FILLER_33_293
*990 FILLER_33_3
*991 FILLER_33_39
*992 FILLER_33_51
*993 FILLER_33_55
*994 FILLER_33_57
*995 FILLER_33_69
*996 FILLER_33_81
*997 FILLER_33_93
*998 FILLER_34_109
*999 FILLER_34_121
*1000 FILLER_34_133
*1001 FILLER_34_139
*1002 FILLER_34_141
*1003 FILLER_34_15
*1004 FILLER_34_153
*1005 FILLER_34_165
*1006 FILLER_34_177
*1007 FILLER_34_189
*1008 FILLER_34_195
*1009 FILLER_34_197
*1010 FILLER_34_209
*1011 FILLER_34_221
*1012 FILLER_34_233
*1013 FILLER_34_245
*1014 FILLER_34_251
*1015 FILLER_34_253
*1016 FILLER_34_265
*1017 FILLER_34_27
*1018 FILLER_34_277
*1019 FILLER_34_289
*1020 FILLER_34_29
*1021 FILLER_34_297
*1022 FILLER_34_3
*1023 FILLER_34_41
*1024 FILLER_34_53
*1025 FILLER_34_65
*1026 FILLER_34_77
*1027 FILLER_34_83
*1028 FILLER_34_85
*1029 FILLER_34_97
*1030 FILLER_35_105
*1031 FILLER_35_111
*1032 FILLER_35_113
*1033 FILLER_35_125
*1034 FILLER_35_137
*1035 FILLER_35_149
*1036 FILLER_35_15
*1037 FILLER_35_161
*1038 FILLER_35_167
*1039 FILLER_35_169
*1040 FILLER_35_181
*1041 FILLER_35_193
*1042 FILLER_35_205
*1043 FILLER_35_217
*1044 FILLER_35_223
*1045 FILLER_35_225
*1046 FILLER_35_237
*1047 FILLER_35_249
*1048 FILLER_35_261
*1049 FILLER_35_27
*1050 FILLER_35_273
*1051 FILLER_35_279
*1052 FILLER_35_281
*1053 FILLER_35_293
*1054 FILLER_35_3
*1055 FILLER_35_39
*1056 FILLER_35_51
*1057 FILLER_35_55
*1058 FILLER_35_57
*1059 FILLER_35_69
*1060 FILLER_35_81
*1061 FILLER_35_93
*1062 FILLER_36_109
*1063 FILLER_36_121
*1064 FILLER_36_133
*1065 FILLER_36_139
*1066 FILLER_36_141
*1067 FILLER_36_15
*1068 FILLER_36_153
*1069 FILLER_36_165
*1070 FILLER_36_177
*1071 FILLER_36_189
*1072 FILLER_36_195
*1073 FILLER_36_197
*1074 FILLER_36_209
*1075 FILLER_36_221
*1076 FILLER_36_233
*1077 FILLER_36_245
*1078 FILLER_36_251
*1079 FILLER_36_253
*1080 FILLER_36_265
*1081 FILLER_36_27
*1082 FILLER_36_277
*1083 FILLER_36_289
*1084 FILLER_36_29
*1085 FILLER_36_297
*1086 FILLER_36_3
*1087 FILLER_36_41
*1088 FILLER_36_53
*1089 FILLER_36_65
*1090 FILLER_36_77
*1091 FILLER_36_83
*1092 FILLER_36_85
*1093 FILLER_36_97
*1094 FILLER_37_105
*1095 FILLER_37_111
*1096 FILLER_37_113
*1097 FILLER_37_125
*1098 FILLER_37_137
*1099 FILLER_37_149
*1100 FILLER_37_15
*1101 FILLER_37_161
*1102 FILLER_37_167
*1103 FILLER_37_169
*1104 FILLER_37_181
*1105 FILLER_37_193
*1106 FILLER_37_205
*1107 FILLER_37_217
*1108 FILLER_37_223
*1109 FILLER_37_225
*1110 FILLER_37_237
*1111 FILLER_37_249
*1112 FILLER_37_261
*1113 FILLER_37_27
*1114 FILLER_37_273
*1115 FILLER_37_279
*1116 FILLER_37_281
*1117 FILLER_37_293
*1118 FILLER_37_3
*1119 FILLER_37_39
*1120 FILLER_37_51
*1121 FILLER_37_55
*1122 FILLER_37_57
*1123 FILLER_37_69
*1124 FILLER_37_81
*1125 FILLER_37_93
*1126 FILLER_38_109
*1127 FILLER_38_121
*1128 FILLER_38_133
*1129 FILLER_38_139
*1130 FILLER_38_141
*1131 FILLER_38_15
*1132 FILLER_38_153
*1133 FILLER_38_165
*1134 FILLER_38_177
*1135 FILLER_38_189
*1136 FILLER_38_195
*1137 FILLER_38_197
*1138 FILLER_38_209
*1139 FILLER_38_221
*1140 FILLER_38_233
*1141 FILLER_38_245
*1142 FILLER_38_251
*1143 FILLER_38_253
*1144 FILLER_38_265
*1145 FILLER_38_27
*1146 FILLER_38_277
*1147 FILLER_38_289
*1148 FILLER_38_29
*1149 FILLER_38_297
*1150 FILLER_38_3
*1151 FILLER_38_41
*1152 FILLER_38_53
*1153 FILLER_38_65
*1154 FILLER_38_77
*1155 FILLER_38_83
*1156 FILLER_38_85
*1157 FILLER_38_97
*1158 FILLER_39_105
*1159 FILLER_39_111
*1160 FILLER_39_113
*1161 FILLER_39_125
*1162 FILLER_39_137
*1163 FILLER_39_149
*1164 FILLER_39_15
*1165 FILLER_39_161
*1166 FILLER_39_167
*1167 FILLER_39_169
*1168 FILLER_39_181
*1169 FILLER_39_193
*1170 FILLER_39_205
*1171 FILLER_39_217
*1172 FILLER_39_223
*1173 FILLER_39_225
*1174 FILLER_39_237
*1175 FILLER_39_249
*1176 FILLER_39_261
*1177 FILLER_39_27
*1178 FILLER_39_273
*1179 FILLER_39_279
*1180 FILLER_39_281
*1181 FILLER_39_293
*1182 FILLER_39_3
*1183 FILLER_39_39
*1184 FILLER_39_51
*1185 FILLER_39_55
*1186 FILLER_39_57
*1187 FILLER_39_69
*1188 FILLER_39_81
*1189 FILLER_39_93
*1190 FILLER_3_103
*1191 FILLER_3_111
*1192 FILLER_3_113
*1193 FILLER_3_125
*1194 FILLER_3_137
*1195 FILLER_3_149
*1196 FILLER_3_161
*1197 FILLER_3_167
*1198 FILLER_3_169
*1199 FILLER_3_181
*1200 FILLER_3_193
*1201 FILLER_3_205
*1202 FILLER_3_21
*1203 FILLER_3_217
*1204 FILLER_3_223
*1205 FILLER_3_225
*1206 FILLER_3_237
*1207 FILLER_3_249
*1208 FILLER_3_261
*1209 FILLER_3_273
*1210 FILLER_3_279
*1211 FILLER_3_281
*1212 FILLER_3_293
*1213 FILLER_3_3
*1214 FILLER_3_42
*1215 FILLER_3_54
*1216 FILLER_3_57
*1217 FILLER_3_67
*1218 FILLER_3_79
*1219 FILLER_3_91
*1220 FILLER_40_109
*1221 FILLER_40_121
*1222 FILLER_40_133
*1223 FILLER_40_139
*1224 FILLER_40_141
*1225 FILLER_40_15
*1226 FILLER_40_153
*1227 FILLER_40_165
*1228 FILLER_40_177
*1229 FILLER_40_189
*1230 FILLER_40_195
*1231 FILLER_40_197
*1232 FILLER_40_209
*1233 FILLER_40_221
*1234 FILLER_40_233
*1235 FILLER_40_245
*1236 FILLER_40_251
*1237 FILLER_40_253
*1238 FILLER_40_265
*1239 FILLER_40_27
*1240 FILLER_40_277
*1241 FILLER_40_289
*1242 FILLER_40_29
*1243 FILLER_40_297
*1244 FILLER_40_3
*1245 FILLER_40_41
*1246 FILLER_40_53
*1247 FILLER_40_65
*1248 FILLER_40_77
*1249 FILLER_40_83
*1250 FILLER_40_85
*1251 FILLER_40_97
*1252 FILLER_41_105
*1253 FILLER_41_111
*1254 FILLER_41_113
*1255 FILLER_41_125
*1256 FILLER_41_137
*1257 FILLER_41_149
*1258 FILLER_41_15
*1259 FILLER_41_161
*1260 FILLER_41_167
*1261 FILLER_41_169
*1262 FILLER_41_181
*1263 FILLER_41_193
*1264 FILLER_41_205
*1265 FILLER_41_217
*1266 FILLER_41_223
*1267 FILLER_41_225
*1268 FILLER_41_237
*1269 FILLER_41_249
*1270 FILLER_41_261
*1271 FILLER_41_27
*1272 FILLER_41_273
*1273 FILLER_41_279
*1274 FILLER_41_281
*1275 FILLER_41_293
*1276 FILLER_41_3
*1277 FILLER_41_39
*1278 FILLER_41_51
*1279 FILLER_41_55
*1280 FILLER_41_57
*1281 FILLER_41_69
*1282 FILLER_41_81
*1283 FILLER_41_93
*1284 FILLER_42_109
*1285 FILLER_42_121
*1286 FILLER_42_133
*1287 FILLER_42_139
*1288 FILLER_42_141
*1289 FILLER_42_15
*1290 FILLER_42_153
*1291 FILLER_42_165
*1292 FILLER_42_177
*1293 FILLER_42_189
*1294 FILLER_42_195
*1295 FILLER_42_197
*1296 FILLER_42_209
*1297 FILLER_42_221
*1298 FILLER_42_233
*1299 FILLER_42_245
*1300 FILLER_42_251
*1301 FILLER_42_253
*1302 FILLER_42_265
*1303 FILLER_42_27
*1304 FILLER_42_277
*1305 FILLER_42_289
*1306 FILLER_42_29
*1307 FILLER_42_297
*1308 FILLER_42_3
*1309 FILLER_42_41
*1310 FILLER_42_53
*1311 FILLER_42_65
*1312 FILLER_42_77
*1313 FILLER_42_83
*1314 FILLER_42_85
*1315 FILLER_42_97
*1316 FILLER_43_105
*1317 FILLER_43_111
*1318 FILLER_43_113
*1319 FILLER_43_125
*1320 FILLER_43_137
*1321 FILLER_43_149
*1322 FILLER_43_15
*1323 FILLER_43_161
*1324 FILLER_43_167
*1325 FILLER_43_169
*1326 FILLER_43_181
*1327 FILLER_43_193
*1328 FILLER_43_205
*1329 FILLER_43_217
*1330 FILLER_43_223
*1331 FILLER_43_225
*1332 FILLER_43_237
*1333 FILLER_43_249
*1334 FILLER_43_261
*1335 FILLER_43_27
*1336 FILLER_43_273
*1337 FILLER_43_279
*1338 FILLER_43_281
*1339 FILLER_43_293
*1340 FILLER_43_3
*1341 FILLER_43_39
*1342 FILLER_43_51
*1343 FILLER_43_55
*1344 FILLER_43_57
*1345 FILLER_43_69
*1346 FILLER_43_81
*1347 FILLER_43_93
*1348 FILLER_44_109
*1349 FILLER_44_121
*1350 FILLER_44_133
*1351 FILLER_44_139
*1352 FILLER_44_141
*1353 FILLER_44_15
*1354 FILLER_44_153
*1355 FILLER_44_165
*1356 FILLER_44_177
*1357 FILLER_44_189
*1358 FILLER_44_195
*1359 FILLER_44_197
*1360 FILLER_44_209
*1361 FILLER_44_221
*1362 FILLER_44_233
*1363 FILLER_44_245
*1364 FILLER_44_251
*1365 FILLER_44_253
*1366 FILLER_44_265
*1367 FILLER_44_27
*1368 FILLER_44_277
*1369 FILLER_44_289
*1370 FILLER_44_29
*1371 FILLER_44_297
*1372 FILLER_44_3
*1373 FILLER_44_41
*1374 FILLER_44_53
*1375 FILLER_44_65
*1376 FILLER_44_77
*1377 FILLER_44_83
*1378 FILLER_44_85
*1379 FILLER_44_97
*1380 FILLER_45_105
*1381 FILLER_45_111
*1382 FILLER_45_113
*1383 FILLER_45_125
*1384 FILLER_45_137
*1385 FILLER_45_149
*1386 FILLER_45_15
*1387 FILLER_45_161
*1388 FILLER_45_167
*1389 FILLER_45_169
*1390 FILLER_45_181
*1391 FILLER_45_193
*1392 FILLER_45_205
*1393 FILLER_45_217
*1394 FILLER_45_223
*1395 FILLER_45_225
*1396 FILLER_45_237
*1397 FILLER_45_249
*1398 FILLER_45_261
*1399 FILLER_45_27
*1400 FILLER_45_273
*1401 FILLER_45_279
*1402 FILLER_45_281
*1403 FILLER_45_293
*1404 FILLER_45_3
*1405 FILLER_45_39
*1406 FILLER_45_51
*1407 FILLER_45_55
*1408 FILLER_45_57
*1409 FILLER_45_69
*1410 FILLER_45_81
*1411 FILLER_45_93
*1412 FILLER_46_109
*1413 FILLER_46_121
*1414 FILLER_46_133
*1415 FILLER_46_139
*1416 FILLER_46_141
*1417 FILLER_46_15
*1418 FILLER_46_153
*1419 FILLER_46_165
*1420 FILLER_46_177
*1421 FILLER_46_189
*1422 FILLER_46_195
*1423 FILLER_46_197
*1424 FILLER_46_209
*1425 FILLER_46_221
*1426 FILLER_46_233
*1427 FILLER_46_245
*1428 FILLER_46_251
*1429 FILLER_46_253
*1430 FILLER_46_265
*1431 FILLER_46_27
*1432 FILLER_46_277
*1433 FILLER_46_289
*1434 FILLER_46_29
*1435 FILLER_46_297
*1436 FILLER_46_3
*1437 FILLER_46_41
*1438 FILLER_46_53
*1439 FILLER_46_65
*1440 FILLER_46_77
*1441 FILLER_46_83
*1442 FILLER_46_85
*1443 FILLER_46_97
*1444 FILLER_47_105
*1445 FILLER_47_111
*1446 FILLER_47_113
*1447 FILLER_47_125
*1448 FILLER_47_137
*1449 FILLER_47_149
*1450 FILLER_47_15
*1451 FILLER_47_161
*1452 FILLER_47_167
*1453 FILLER_47_169
*1454 FILLER_47_181
*1455 FILLER_47_193
*1456 FILLER_47_205
*1457 FILLER_47_217
*1458 FILLER_47_223
*1459 FILLER_47_225
*1460 FILLER_47_237
*1461 FILLER_47_249
*1462 FILLER_47_261
*1463 FILLER_47_27
*1464 FILLER_47_273
*1465 FILLER_47_279
*1466 FILLER_47_281
*1467 FILLER_47_293
*1468 FILLER_47_3
*1469 FILLER_47_39
*1470 FILLER_47_51
*1471 FILLER_47_55
*1472 FILLER_47_57
*1473 FILLER_47_69
*1474 FILLER_47_81
*1475 FILLER_47_93
*1476 FILLER_48_109
*1477 FILLER_48_121
*1478 FILLER_48_133
*1479 FILLER_48_139
*1480 FILLER_48_141
*1481 FILLER_48_15
*1482 FILLER_48_153
*1483 FILLER_48_165
*1484 FILLER_48_177
*1485 FILLER_48_189
*1486 FILLER_48_195
*1487 FILLER_48_197
*1488 FILLER_48_209
*1489 FILLER_48_221
*1490 FILLER_48_233
*1491 FILLER_48_245
*1492 FILLER_48_251
*1493 FILLER_48_253
*1494 FILLER_48_265
*1495 FILLER_48_27
*1496 FILLER_48_277
*1497 FILLER_48_289
*1498 FILLER_48_29
*1499 FILLER_48_297
*1500 FILLER_48_3
*1501 FILLER_48_41
*1502 FILLER_48_53
*1503 FILLER_48_65
*1504 FILLER_48_77
*1505 FILLER_48_83
*1506 FILLER_48_85
*1507 FILLER_48_97
*1508 FILLER_49_105
*1509 FILLER_49_111
*1510 FILLER_49_113
*1511 FILLER_49_125
*1512 FILLER_49_137
*1513 FILLER_49_149
*1514 FILLER_49_15
*1515 FILLER_49_161
*1516 FILLER_49_167
*1517 FILLER_49_169
*1518 FILLER_49_181
*1519 FILLER_49_193
*1520 FILLER_49_205
*1521 FILLER_49_217
*1522 FILLER_49_223
*1523 FILLER_49_225
*1524 FILLER_49_237
*1525 FILLER_49_249
*1526 FILLER_49_261
*1527 FILLER_49_27
*1528 FILLER_49_273
*1529 FILLER_49_279
*1530 FILLER_49_281
*1531 FILLER_49_293
*1532 FILLER_49_3
*1533 FILLER_49_39
*1534 FILLER_49_51
*1535 FILLER_49_55
*1536 FILLER_49_57
*1537 FILLER_49_69
*1538 FILLER_49_81
*1539 FILLER_49_93
*1540 FILLER_4_103
*1541 FILLER_4_115
*1542 FILLER_4_127
*1543 FILLER_4_139
*1544 FILLER_4_141
*1545 FILLER_4_153
*1546 FILLER_4_165
*1547 FILLER_4_177
*1548 FILLER_4_189
*1549 FILLER_4_195
*1550 FILLER_4_197
*1551 FILLER_4_209
*1552 FILLER_4_22
*1553 FILLER_4_221
*1554 FILLER_4_233
*1555 FILLER_4_245
*1556 FILLER_4_251
*1557 FILLER_4_253
*1558 FILLER_4_265
*1559 FILLER_4_277
*1560 FILLER_4_289
*1561 FILLER_4_29
*1562 FILLER_4_297
*1563 FILLER_4_3
*1564 FILLER_4_51
*1565 FILLER_4_71
*1566 FILLER_4_83
*1567 FILLER_4_85
*1568 FILLER_4_91
*1569 FILLER_50_109
*1570 FILLER_50_121
*1571 FILLER_50_133
*1572 FILLER_50_139
*1573 FILLER_50_141
*1574 FILLER_50_15
*1575 FILLER_50_153
*1576 FILLER_50_165
*1577 FILLER_50_177
*1578 FILLER_50_189
*1579 FILLER_50_195
*1580 FILLER_50_197
*1581 FILLER_50_209
*1582 FILLER_50_221
*1583 FILLER_50_233
*1584 FILLER_50_245
*1585 FILLER_50_251
*1586 FILLER_50_253
*1587 FILLER_50_265
*1588 FILLER_50_27
*1589 FILLER_50_277
*1590 FILLER_50_289
*1591 FILLER_50_29
*1592 FILLER_50_297
*1593 FILLER_50_3
*1594 FILLER_50_41
*1595 FILLER_50_53
*1596 FILLER_50_65
*1597 FILLER_50_77
*1598 FILLER_50_83
*1599 FILLER_50_85
*1600 FILLER_50_97
*1601 FILLER_51_105
*1602 FILLER_51_111
*1603 FILLER_51_113
*1604 FILLER_51_125
*1605 FILLER_51_137
*1606 FILLER_51_149
*1607 FILLER_51_15
*1608 FILLER_51_161
*1609 FILLER_51_167
*1610 FILLER_51_169
*1611 FILLER_51_181