*SPEF "ieee 1481-1999"
*DESIGN "prog_melody_gen"
*DATE "11:11:11 Fri 11 11, 1111"
*VENDOR "OpenRCX"
*PROGRAM "Parallel Extraction"
*VERSION "1.0"
*DESIGN_FLOW "NAME_SCOPE LOCAL" "PIN_CAP NONE"
*DIVIDER /
*DELIMITER :
*BUS_DELIMITER []
*T_UNIT 1 NS
*C_UNIT 1 PF
*R_UNIT 1 OHM
*L_UNIT 1 HENRY

*NAME_MAP
*1 io_in[0]
*2 io_in[1]
*3 io_in[2]
*4 io_in[3]
*5 io_in[4]
*6 io_in[5]
*7 io_in[6]
*8 io_in[7]
*9 io_out[0]
*10 net78
*11 net79
*12 net80
*13 net81
*14 net82
*15 net83
*16 net84
*19 _0000_
*20 _0001_
*21 _0002_
*22 _0003_
*23 _0004_
*24 _0005_
*25 _0006_
*26 _0007_
*27 _0008_
*28 _0009_
*29 _0010_
*30 _0011_
*31 _0012_
*32 _0013_
*33 _0014_
*34 _0015_
*35 _0016_
*36 _0017_
*37 _0018_
*38 _0019_
*39 _0020_
*40 _0021_
*41 _0022_
*42 _0023_
*43 _0024_
*44 _0025_
*45 _0026_
*46 _0027_
*47 _0028_
*48 _0029_
*49 _0030_
*50 _0031_
*51 _0032_
*52 _0033_
*53 _0034_
*54 _0035_
*55 _0036_
*56 _0037_
*57 _0038_
*58 _0039_
*59 _0040_
*60 _0041_
*61 _0042_
*62 _0043_
*63 _0044_
*64 _0045_
*65 _0046_
*66 _0047_
*67 _0048_
*68 _0049_
*69 _0050_
*70 _0051_
*71 _0052_
*72 _0053_
*73 _0054_
*74 _0055_
*75 _0056_
*76 _0057_
*77 _0058_
*78 _0059_
*79 _0060_
*80 _0061_
*81 _0062_
*82 _0063_
*83 _0064_
*84 _0065_
*85 _0066_
*86 _0067_
*87 _0068_
*88 _0069_
*89 _0070_
*90 _0071_
*91 _0072_
*92 _0073_
*93 _0074_
*94 _0075_
*95 _0076_
*96 _0077_
*97 _0078_
*98 _0079_
*99 _0080_
*100 _0081_
*101 _0082_
*102 _0083_
*103 _0084_
*104 _0085_
*105 _0086_
*106 _0087_
*107 _0088_
*108 _0089_
*109 _0090_
*110 _0091_
*111 _0092_
*112 _0093_
*113 _0094_
*114 _0095_
*115 _0096_
*116 _0097_
*117 _0098_
*118 _0099_
*119 _0100_
*120 _0101_
*121 _0102_
*122 _0103_
*123 _0107_
*124 _0108_
*125 _0109_
*126 _0110_
*127 _0111_
*128 _0112_
*129 _0113_
*130 _0114_
*131 _0115_
*132 _0116_
*133 _0117_
*134 _0118_
*135 _0119_
*136 _0120_
*137 _0121_
*138 _0122_
*139 _0123_
*140 _0124_
*141 _0125_
*142 _0126_
*143 _0127_
*144 _0128_
*145 _0129_
*146 _0130_
*147 _0131_
*148 _0132_
*149 _0133_
*150 _0134_
*151 _0135_
*152 _0136_
*153 _0137_
*154 _0138_
*155 _0139_
*156 _0140_
*157 _0141_
*158 _0142_
*159 _0143_
*160 _0144_
*161 _0145_
*162 _0146_
*163 _0147_
*164 _0148_
*165 _0149_
*166 _0150_
*167 _0151_
*168 _0152_
*169 _0153_
*170 _0154_
*171 _0155_
*172 _0156_
*173 _0157_
*174 _0158_
*175 _0159_
*176 _0160_
*177 _0161_
*178 _0162_
*179 _0163_
*180 _0164_
*181 _0165_
*182 _0166_
*183 _0167_
*184 _0168_
*185 _0169_
*186 _0170_
*187 _0171_
*188 _0172_
*189 _0173_
*190 _0174_
*191 _0175_
*192 _0176_
*193 _0177_
*194 _0178_
*195 _0179_
*196 _0180_
*197 _0181_
*198 _0182_
*199 _0183_
*200 _0184_
*201 _0185_
*202 _0186_
*203 _0187_
*204 _0188_
*205 _0189_
*206 _0190_
*207 _0191_
*208 _0192_
*209 _0193_
*210 _0194_
*211 _0195_
*212 _0196_
*213 _0197_
*214 _0198_
*215 _0199_
*216 _0200_
*217 _0201_
*218 _0202_
*219 _0203_
*220 _0204_
*221 _0205_
*222 _0206_
*223 _0207_
*224 _0208_
*225 _0209_
*226 _0210_
*227 _0211_
*228 _0212_
*229 _0213_
*230 _0214_
*231 _0215_
*232 _0216_
*233 _0217_
*234 _0218_
*235 _0219_
*236 _0220_
*237 _0221_
*238 _0222_
*239 _0223_
*240 _0224_
*241 _0225_
*242 _0226_
*243 _0227_
*244 _0228_
*245 _0229_
*246 _0230_
*247 _0231_
*248 _0232_
*249 _0233_
*250 _0234_
*251 _0235_
*252 _0236_
*253 _0237_
*254 _0238_
*255 _0239_
*256 _0240_
*257 _0241_
*258 _0242_
*259 _0243_
*260 _0244_
*261 _0245_
*262 _0246_
*263 _0247_
*264 _0248_
*265 _0249_
*266 _0250_
*267 _0251_
*268 _0252_
*269 _0253_
*270 _0254_
*271 _0255_
*272 _0256_
*273 _0257_
*274 _0258_
*275 _0259_
*276 _0260_
*277 _0261_
*278 _0262_
*279 _0263_
*280 _0264_
*281 _0265_
*282 _0266_
*283 _0267_
*284 _0268_
*285 _0269_
*286 _0270_
*287 _0271_
*288 _0272_
*289 _0273_
*290 _0274_
*291 _0275_
*292 _0276_
*293 _0277_
*294 _0278_
*295 _0279_
*296 _0280_
*297 _0281_
*298 _0282_
*299 _0283_
*300 _0284_
*301 _0285_
*302 _0286_
*303 _0287_
*304 _0288_
*305 _0289_
*306 _0290_
*307 _0291_
*308 _0292_
*309 _0293_
*310 _0294_
*311 _0295_
*312 _0296_
*313 _0297_
*314 _0298_
*315 _0299_
*316 _0300_
*317 _0301_
*318 _0302_
*319 _0303_
*320 _0304_
*321 _0305_
*322 _0306_
*323 _0307_
*324 _0308_
*325 _0309_
*326 _0310_
*327 _0311_
*328 _0312_
*329 _0313_
*330 _0314_
*331 _0315_
*332 _0316_
*333 _0317_
*334 _0318_
*335 _0319_
*336 _0320_
*337 _0321_
*338 _0322_
*339 _0323_
*340 _0324_
*341 _0325_
*342 _0326_
*343 _0327_
*344 _0328_
*345 _0329_
*346 _0330_
*347 _0331_
*348 _0332_
*349 _0333_
*350 _0334_
*351 _0335_
*352 _0336_
*353 _0337_
*354 _0338_
*355 _0339_
*356 _0340_
*357 _0341_
*358 _0342_
*359 _0343_
*360 _0344_
*361 _0345_
*362 _0346_
*363 _0347_
*364 _0348_
*365 _0349_
*366 _0350_
*367 _0351_
*368 _0352_
*369 _0353_
*370 _0354_
*371 _0355_
*372 _0356_
*373 _0357_
*374 _0358_
*375 _0359_
*376 _0360_
*377 _0361_
*378 _0362_
*379 _0363_
*380 _0364_
*381 _0365_
*382 _0366_
*383 _0367_
*384 _0368_
*385 _0369_
*386 _0370_
*387 _0371_
*388 _0372_
*389 _0373_
*390 _0374_
*391 _0375_
*392 _0376_
*393 _0377_
*394 _0378_
*395 _0379_
*396 _0380_
*397 _0381_
*398 _0382_
*399 _0383_
*400 _0384_
*401 _0385_
*402 _0386_
*403 _0387_
*404 _0388_
*405 _0389_
*406 _0390_
*407 _0391_
*408 _0392_
*409 _0393_
*410 _0394_
*411 _0395_
*412 _0396_
*413 _0397_
*414 _0398_
*415 _0399_
*416 _0400_
*417 _0401_
*418 _0402_
*419 _0403_
*420 _0404_
*421 _0405_
*422 _0406_
*423 _0407_
*424 _0408_
*425 _0409_
*426 _0410_
*427 _0411_
*428 _0412_
*429 _0413_
*430 _0414_
*431 _0415_
*432 _0416_
*433 _0417_
*434 _0418_
*435 _0419_
*436 _0420_
*437 _0421_
*438 _0422_
*439 _0423_
*440 _0424_
*441 _0425_
*442 _0426_
*443 _0427_
*444 _0428_
*445 _0429_
*446 _0430_
*447 _0431_
*448 _0432_
*449 _0433_
*450 _0434_
*451 _0435_
*452 _0436_
*453 _0437_
*454 _0438_
*455 _0439_
*456 _0440_
*457 _0441_
*458 _0442_
*459 _0443_
*460 _0444_
*461 _0445_
*462 _0446_
*463 _0447_
*464 _0448_
*465 _0449_
*466 _0450_
*467 _0451_
*468 _0452_
*469 _0453_
*470 _0454_
*471 _0455_
*472 _0456_
*473 _0457_
*474 _0458_
*475 _0459_
*476 _0460_
*477 _0461_
*478 _0462_
*479 _0463_
*480 _0464_
*481 _0465_
*482 _0466_
*483 _0467_
*484 _0468_
*485 _0469_
*486 _0470_
*487 _0471_
*488 _0472_
*489 _0473_
*490 _0474_
*491 _0475_
*492 _0476_
*493 _0477_
*494 _0478_
*495 _0479_
*496 _0480_
*497 _0481_
*498 _0482_
*499 _0483_
*500 _0484_
*501 _0485_
*502 _0486_
*503 _0487_
*504 _0488_
*505 _0489_
*506 _0490_
*507 _0491_
*508 _0492_
*509 _0493_
*510 _0494_
*511 _0495_
*512 _0496_
*513 _0497_
*514 _0498_
*515 _0499_
*516 _0500_
*517 _0501_
*518 _0502_
*519 _0503_
*520 _0504_
*521 _0505_
*522 _0506_
*523 _0507_
*524 _0508_
*525 _0509_
*526 _0510_
*527 _0511_
*528 _0512_
*529 _0513_
*530 _0514_
*531 _0515_
*532 _0516_
*533 _0517_
*534 _0518_
*535 _0519_
*536 _0520_
*537 _0521_
*538 _0522_
*539 _0523_
*540 _0524_
*541 _0525_
*542 _0526_
*543 _0527_
*544 _0528_
*545 _0529_
*546 _0530_
*547 _0531_
*548 _0532_
*549 _0533_
*550 _0534_
*551 _0535_
*552 _0536_
*553 _0537_
*554 _0538_
*555 _0539_
*556 _0540_
*557 _0541_
*558 _0542_
*559 _0543_
*560 _0544_
*561 _0545_
*562 _0546_
*563 _0547_
*564 _0548_
*565 _0549_
*566 _0550_
*567 _0551_
*568 _0552_
*569 _0553_
*570 _0554_
*571 _0555_
*572 _0556_
*573 _0557_
*574 _0558_
*575 _0559_
*576 _0560_
*577 _0561_
*578 _0562_
*579 _0563_
*580 _0564_
*581 _0565_
*582 _0566_
*583 _0567_
*584 _0568_
*585 _0569_
*586 _0570_
*587 _0571_
*588 _0572_
*589 _0573_
*590 _0574_
*591 _0575_
*592 _0576_
*593 _0577_
*594 _0578_
*595 _0579_
*596 _0580_
*597 _0581_
*598 _0582_
*599 _0583_
*600 _0584_
*601 _0585_
*602 _0586_
*603 _0587_
*604 _0588_
*605 _0589_
*606 _0590_
*607 _0591_
*608 _0592_
*609 _0593_
*610 _0594_
*611 _0595_
*612 _0596_
*613 _0597_
*614 _0598_
*615 _0599_
*616 _0600_
*617 clknet_0_io_in[0]
*618 clknet_2_0__leaf_io_in[0]
*619 clknet_2_1__leaf_io_in[0]
*620 clknet_2_2__leaf_io_in[0]
*621 clknet_2_3__leaf_io_in[0]
*622 curr_tone\[0\]
*623 curr_tone\[1\]
*624 curr_tone\[2\]
*625 curr_tone\[3\]
*626 curr_tone\[4\]
*627 div_tmr\[0\]
*628 div_tmr\[1\]
*629 div_tmr\[2\]
*630 div_tmr\[3\]
*631 div_tmr\[4\]
*632 div_tmr\[5\]
*633 div_tmr\[6\]
*634 div_tmr\[7\]
*635 div_tmr\[8\]
*636 div_tmr\[9\]
*637 mel_gen\[0\]
*638 mel_gen\[1\]
*639 mel_gen\[2\]
*640 mel_gen\[3\]
*641 mel_gen\[4\]
*642 mel_gen\[5\]
*643 mel_gen\[6\]
*644 mel_gen\[7\]
*645 mel_out
*646 net1
*647 net10
*648 net11
*649 net12
*650 net13
*651 net14
*652 net15
*653 net16
*654 net17
*655 net18
*656 net19
*657 net2
*658 net20
*659 net21
*660 net22
*661 net23
*662 net24
*663 net25
*664 net26
*665 net27
*666 net28
*667 net29
*668 net3
*669 net30
*670 net31
*671 net32
*672 net33
*673 net34
*674 net35
*675 net36
*676 net37
*677 net38
*678 net39
*679 net4
*680 net40
*681 net41
*682 net42
*683 net43
*684 net44
*685 net45
*686 net46
*687 net47
*688 net48
*689 net49
*690 net5
*691 net50
*692 net51
*693 net52
*694 net53
*695 net54
*696 net55
*697 net56
*698 net57
*699 net58
*700 net59
*701 net6
*702 net60
*703 net61
*704 net62
*705 net63
*706 net64
*707 net65
*708 net66
*709 net67
*710 net68
*711 net69
*712 net7
*713 net70
*714 net71
*715 net72
*716 net73
*717 net74
*718 net75
*719 net76
*720 net77
*721 net8
*722 net85
*723 net86
*724 net87
*725 net88
*726 net9
*727 pgm_word_sel\[0\]
*728 pgm_word_sel\[1\]
*729 pgm_word_sel\[2\]
*730 pgm_word_sel\[3\]
*731 pgm_word_sel\[4\]
*732 pgm_word_sel\[5\]
*733 pgm_write_data\[0\]
*734 pgm_write_data\[1\]
*735 pgm_write_data\[2\]
*736 pgm_write_data\[3\]
*737 state
*738 tick
*739 tone_seq\[0\]
*740 tone_seq\[1\]
*741 tone_seq\[2\]
*742 tone_seq\[3\]
*743 tone_seq\[4\]
*744 tone_seq\[5\]
*745 words\[0\]\.bits\[0\]\.lat_o
*746 words\[0\]\.bits\[1\]\.lat_o
*747 words\[0\]\.bits\[2\]\.lat_o
*748 words\[0\]\.bits\[3\]\.lat_o
*749 words\[0\]\.word_we
*750 words\[10\]\.bits\[0\]\.lat_o
*751 words\[10\]\.bits\[1\]\.lat_o
*752 words\[10\]\.bits\[2\]\.lat_o
*753 words\[10\]\.bits\[3\]\.lat_o
*754 words\[10\]\.word_we
*755 words\[11\]\.bits\[0\]\.lat_o
*756 words\[11\]\.bits\[1\]\.lat_o
*757 words\[11\]\.bits\[2\]\.lat_o
*758 words\[11\]\.bits\[3\]\.lat_o
*759 words\[11\]\.word_we
*760 words\[12\]\.bits\[0\]\.lat_o
*761 words\[12\]\.bits\[1\]\.lat_o
*762 words\[12\]\.bits\[2\]\.lat_o
*763 words\[12\]\.bits\[3\]\.lat_o
*764 words\[12\]\.word_we
*765 words\[13\]\.bits\[0\]\.lat_o
*766 words\[13\]\.bits\[1\]\.lat_o
*767 words\[13\]\.bits\[2\]\.lat_o
*768 words\[13\]\.bits\[3\]\.lat_o
*769 words\[13\]\.word_we
*770 words\[14\]\.bits\[0\]\.lat_o
*771 words\[14\]\.bits\[1\]\.lat_o
*772 words\[14\]\.bits\[2\]\.lat_o
*773 words\[14\]\.bits\[3\]\.lat_o
*774 words\[14\]\.word_we
*775 words\[15\]\.bits\[0\]\.lat_o
*776 words\[15\]\.bits\[1\]\.lat_o
*777 words\[15\]\.bits\[2\]\.lat_o
*778 words\[15\]\.bits\[3\]\.lat_o
*779 words\[15\]\.word_we
*780 words\[16\]\.bits\[0\]\.lat_o
*781 words\[16\]\.bits\[1\]\.lat_o
*782 words\[16\]\.bits\[2\]\.lat_o
*783 words\[16\]\.bits\[3\]\.lat_o
*784 words\[16\]\.word_we
*785 words\[17\]\.bits\[0\]\.lat_o
*786 words\[17\]\.bits\[1\]\.lat_o
*787 words\[17\]\.bits\[2\]\.lat_o
*788 words\[17\]\.bits\[3\]\.lat_o
*789 words\[17\]\.word_we
*790 words\[18\]\.bits\[0\]\.lat_o
*791 words\[18\]\.bits\[1\]\.lat_o
*792 words\[18\]\.bits\[2\]\.lat_o
*793 words\[18\]\.bits\[3\]\.lat_o
*794 words\[18\]\.word_we
*795 words\[19\]\.bits\[0\]\.lat_o
*796 words\[19\]\.bits\[1\]\.lat_o
*797 words\[19\]\.bits\[2\]\.lat_o
*798 words\[19\]\.bits\[3\]\.lat_o
*799 words\[19\]\.word_we
*800 words\[1\]\.bits\[0\]\.lat_o
*801 words\[1\]\.bits\[1\]\.lat_o
*802 words\[1\]\.bits\[2\]\.lat_o
*803 words\[1\]\.bits\[3\]\.lat_o
*804 words\[1\]\.word_we
*805 words\[20\]\.bits\[0\]\.lat_o
*806 words\[20\]\.bits\[1\]\.lat_o
*807 words\[20\]\.bits\[2\]\.lat_o
*808 words\[20\]\.bits\[3\]\.lat_o
*809 words\[20\]\.word_we
*810 words\[21\]\.bits\[0\]\.lat_o
*811 words\[21\]\.bits\[1\]\.lat_o
*812 words\[21\]\.bits\[2\]\.lat_o
*813 words\[21\]\.bits\[3\]\.lat_o
*814 words\[21\]\.word_we
*815 words\[22\]\.bits\[0\]\.lat_o
*816 words\[22\]\.bits\[1\]\.lat_o
*817 words\[22\]\.bits\[2\]\.lat_o
*818 words\[22\]\.bits\[3\]\.lat_o
*819 words\[22\]\.word_we
*820 words\[23\]\.bits\[0\]\.lat_o
*821 words\[23\]\.bits\[1\]\.lat_o
*822 words\[23\]\.bits\[2\]\.lat_o
*823 words\[23\]\.bits\[3\]\.lat_o
*824 words\[23\]\.word_we
*825 words\[24\]\.bits\[0\]\.lat_o
*826 words\[24\]\.bits\[1\]\.lat_o
*827 words\[24\]\.bits\[2\]\.lat_o
*828 words\[24\]\.bits\[3\]\.lat_o
*829 words\[24\]\.word_we
*830 words\[25\]\.bits\[0\]\.lat_o
*831 words\[25\]\.bits\[1\]\.lat_o
*832 words\[25\]\.bits\[2\]\.lat_o
*833 words\[25\]\.bits\[3\]\.lat_o
*834 words\[25\]\.word_we
*835 words\[26\]\.bits\[0\]\.lat_o
*836 words\[26\]\.bits\[1\]\.lat_o
*837 words\[26\]\.bits\[2\]\.lat_o
*838 words\[26\]\.bits\[3\]\.lat_o
*839 words\[26\]\.word_we
*840 words\[27\]\.bits\[0\]\.lat_o
*841 words\[27\]\.bits\[1\]\.lat_o
*842 words\[27\]\.bits\[2\]\.lat_o
*843 words\[27\]\.bits\[3\]\.lat_o
*844 words\[27\]\.word_we
*845 words\[28\]\.bits\[0\]\.lat_o
*846 words\[28\]\.bits\[1\]\.lat_o
*847 words\[28\]\.bits\[2\]\.lat_o
*848 words\[28\]\.bits\[3\]\.lat_o
*849 words\[28\]\.word_we
*850 words\[29\]\.bits\[0\]\.lat_o
*851 words\[29\]\.bits\[1\]\.lat_o
*852 words\[29\]\.bits\[2\]\.lat_o
*853 words\[29\]\.bits\[3\]\.lat_o
*854 words\[29\]\.word_we
*855 words\[2\]\.bits\[0\]\.lat_o
*856 words\[2\]\.bits\[1\]\.lat_o
*857 words\[2\]\.bits\[2\]\.lat_o
*858 words\[2\]\.bits\[3\]\.lat_o
*859 words\[2\]\.word_we
*860 words\[30\]\.bits\[0\]\.lat_o
*861 words\[30\]\.bits\[1\]\.lat_o
*862 words\[30\]\.bits\[2\]\.lat_o
*863 words\[30\]\.bits\[3\]\.lat_o
*864 words\[30\]\.word_we
*865 words\[31\]\.bits\[0\]\.lat_o
*866 words\[31\]\.bits\[1\]\.lat_o
*867 words\[31\]\.bits\[2\]\.lat_o
*868 words\[31\]\.bits\[3\]\.lat_o
*869 words\[31\]\.word_we
*870 words\[32\]\.bits\[0\]\.lat_o
*871 words\[32\]\.bits\[1\]\.lat_o
*872 words\[32\]\.bits\[2\]\.lat_o
*873 words\[32\]\.bits\[3\]\.lat_o
*874 words\[32\]\.word_we
*875 words\[33\]\.bits\[0\]\.lat_o
*876 words\[33\]\.bits\[1\]\.lat_o
*877 words\[33\]\.bits\[2\]\.lat_o
*878 words\[33\]\.bits\[3\]\.lat_o
*879 words\[33\]\.word_we
*880 words\[34\]\.bits\[0\]\.lat_o
*881 words\[34\]\.bits\[1\]\.lat_o
*882 words\[34\]\.bits\[2\]\.lat_o
*883 words\[34\]\.bits\[3\]\.lat_o
*884 words\[34\]\.word_we
*885 words\[35\]\.bits\[0\]\.lat_o
*886 words\[35\]\.bits\[1\]\.lat_o
*887 words\[35\]\.bits\[2\]\.lat_o
*888 words\[35\]\.bits\[3\]\.lat_o
*889 words\[35\]\.word_we
*890 words\[36\]\.bits\[0\]\.lat_o
*891 words\[36\]\.bits\[1\]\.lat_o
*892 words\[36\]\.bits\[2\]\.lat_o
*893 words\[36\]\.bits\[3\]\.lat_o
*894 words\[36\]\.word_we
*895 words\[37\]\.bits\[0\]\.lat_o
*896 words\[37\]\.bits\[1\]\.lat_o
*897 words\[37\]\.bits\[2\]\.lat_o
*898 words\[37\]\.bits\[3\]\.lat_o
*899 words\[37\]\.word_we
*900 words\[38\]\.bits\[0\]\.lat_o
*901 words\[38\]\.bits\[1\]\.lat_o
*902 words\[38\]\.bits\[2\]\.lat_o
*903 words\[38\]\.bits\[3\]\.lat_o
*904 words\[38\]\.word_we
*905 words\[39\]\.bits\[0\]\.lat_o
*906 words\[39\]\.bits\[1\]\.lat_o
*907 words\[39\]\.bits\[2\]\.lat_o
*908 words\[39\]\.bits\[3\]\.lat_o
*909 words\[39\]\.word_we
*910 words\[3\]\.bits\[0\]\.lat_o
*911 words\[3\]\.bits\[1\]\.lat_o
*912 words\[3\]\.bits\[2\]\.lat_o
*913 words\[3\]\.bits\[3\]\.lat_o
*914 words\[3\]\.word_we
*915 words\[40\]\.bits\[0\]\.lat_o
*916 words\[40\]\.bits\[1\]\.lat_o
*917 words\[40\]\.bits\[2\]\.lat_o
*918 words\[40\]\.bits\[3\]\.lat_o
*919 words\[40\]\.word_we
*920 words\[41\]\.bits\[0\]\.lat_o
*921 words\[41\]\.bits\[1\]\.lat_o
*922 words\[41\]\.bits\[2\]\.lat_o
*923 words\[41\]\.bits\[3\]\.lat_o
*924 words\[41\]\.word_we
*925 words\[42\]\.bits\[0\]\.lat_o
*926 words\[42\]\.bits\[1\]\.lat_o
*927 words\[42\]\.bits\[2\]\.lat_o
*928 words\[42\]\.bits\[3\]\.lat_o
*929 words\[42\]\.word_we
*930 words\[43\]\.bits\[0\]\.lat_o
*931 words\[43\]\.bits\[1\]\.lat_o
*932 words\[43\]\.bits\[2\]\.lat_o
*933 words\[43\]\.bits\[3\]\.lat_o
*934 words\[43\]\.word_we
*935 words\[44\]\.bits\[0\]\.lat_o
*936 words\[44\]\.bits\[1\]\.lat_o
*937 words\[44\]\.bits\[2\]\.lat_o
*938 words\[44\]\.bits\[3\]\.lat_o
*939 words\[44\]\.word_we
*940 words\[45\]\.bits\[0\]\.lat_o
*941 words\[45\]\.bits\[1\]\.lat_o
*942 words\[45\]\.bits\[2\]\.lat_o
*943 words\[45\]\.bits\[3\]\.lat_o
*944 words\[45\]\.word_we
*945 words\[46\]\.bits\[0\]\.lat_o
*946 words\[46\]\.bits\[1\]\.lat_o
*947 words\[46\]\.bits\[2\]\.lat_o
*948 words\[46\]\.bits\[3\]\.lat_o
*949 words\[46\]\.word_we
*950 words\[47\]\.bits\[0\]\.lat_o
*951 words\[47\]\.bits\[1\]\.lat_o
*952 words\[47\]\.bits\[2\]\.lat_o
*953 words\[47\]\.bits\[3\]\.lat_o
*954 words\[47\]\.word_we
*955 words\[48\]\.bits\[0\]\.lat_o
*956 words\[48\]\.bits\[1\]\.lat_o
*957 words\[48\]\.bits\[2\]\.lat_o
*958 words\[48\]\.bits\[3\]\.lat_o
*959 words\[48\]\.word_we
*960 words\[49\]\.bits\[0\]\.lat_o
*961 words\[49\]\.bits\[1\]\.lat_o
*962 words\[49\]\.bits\[2\]\.lat_o
*963 words\[49\]\.bits\[3\]\.lat_o
*964 words\[49\]\.word_we
*965 words\[4\]\.bits\[0\]\.lat_o
*966 words\[4\]\.bits\[1\]\.lat_o
*967 words\[4\]\.bits\[2\]\.lat_o
*968 words\[4\]\.bits\[3\]\.lat_o
*969 words\[4\]\.word_we
*970 words\[50\]\.bits\[0\]\.lat_o
*971 words\[50\]\.bits\[1\]\.lat_o
*972 words\[50\]\.bits\[2\]\.lat_o
*973 words\[50\]\.bits\[3\]\.lat_o
*974 words\[50\]\.word_we
*975 words\[51\]\.bits\[0\]\.lat_o
*976 words\[51\]\.bits\[1\]\.lat_o
*977 words\[51\]\.bits\[2\]\.lat_o
*978 words\[51\]\.bits\[3\]\.lat_o
*979 words\[51\]\.word_we
*980 words\[52\]\.bits\[0\]\.lat_o
*981 words\[52\]\.bits\[1\]\.lat_o
*982 words\[52\]\.bits\[2\]\.lat_o
*983 words\[52\]\.bits\[3\]\.lat_o
*984 words\[52\]\.word_we
*985 words\[53\]\.bits\[0\]\.lat_o
*986 words\[53\]\.bits\[1\]\.lat_o
*987 words\[53\]\.bits\[2\]\.lat_o
*988 words\[53\]\.bits\[3\]\.lat_o
*989 words\[53\]\.word_we
*990 words\[54\]\.bits\[0\]\.lat_o
*991 words\[54\]\.bits\[1\]\.lat_o
*992 words\[54\]\.bits\[2\]\.lat_o
*993 words\[54\]\.bits\[3\]\.lat_o
*994 words\[54\]\.word_we
*995 words\[55\]\.bits\[0\]\.lat_o
*996 words\[55\]\.bits\[1\]\.lat_o
*997 words\[55\]\.bits\[2\]\.lat_o
*998 words\[55\]\.bits\[3\]\.lat_o
*999 words\[55\]\.word_we
*1000 words\[56\]\.bits\[0\]\.lat_o
*1001 words\[56\]\.bits\[1\]\.lat_o
*1002 words\[56\]\.bits\[2\]\.lat_o
*1003 words\[56\]\.bits\[3\]\.lat_o
*1004 words\[56\]\.word_we
*1005 words\[57\]\.bits\[0\]\.lat_o
*1006 words\[57\]\.bits\[1\]\.lat_o
*1007 words\[57\]\.bits\[2\]\.lat_o
*1008 words\[57\]\.bits\[3\]\.lat_o
*1009 words\[57\]\.word_we
*1010 words\[58\]\.bits\[0\]\.lat_o
*1011 words\[58\]\.bits\[1\]\.lat_o
*1012 words\[58\]\.bits\[2\]\.lat_o
*1013 words\[58\]\.bits\[3\]\.lat_o
*1014 words\[58\]\.word_we
*1015 words\[59\]\.bits\[0\]\.lat_o
*1016 words\[59\]\.bits\[1\]\.lat_o
*1017 words\[59\]\.bits\[2\]\.lat_o
*1018 words\[59\]\.bits\[3\]\.lat_o
*1019 words\[59\]\.word_we
*1020 words\[5\]\.bits\[0\]\.lat_o
*1021 words\[5\]\.bits\[1\]\.lat_o
*1022 words\[5\]\.bits\[2\]\.lat_o
*1023 words\[5\]\.bits\[3\]\.lat_o
*1024 words\[5\]\.word_we
*1025 words\[60\]\.bits\[0\]\.lat_o
*1026 words\[60\]\.bits\[1\]\.lat_o
*1027 words\[60\]\.bits\[2\]\.lat_o
*1028 words\[60\]\.bits\[3\]\.lat_o
*1029 words\[60\]\.word_we
*1030 words\[61\]\.bits\[0\]\.lat_o
*1031 words\[61\]\.bits\[1\]\.lat_o
*1032 words\[61\]\.bits\[2\]\.lat_o
*1033 words\[61\]\.bits\[3\]\.lat_o
*1034 words\[61\]\.word_we
*1035 words\[62\]\.bits\[0\]\.lat_o
*1036 words\[62\]\.bits\[1\]\.lat_o
*1037 words\[62\]\.bits\[2\]\.lat_o
*1038 words\[62\]\.bits\[3\]\.lat_o
*1039 words\[62\]\.word_we
*1040 words\[63\]\.bits\[0\]\.lat_o
*1041 words\[63\]\.bits\[1\]\.lat_o
*1042 words\[63\]\.bits\[2\]\.lat_o
*1043 words\[63\]\.bits\[3\]\.lat_o
*1044 words\[63\]\.word_we
*1045 words\[6\]\.bits\[0\]\.lat_o
*1046 words\[6\]\.bits\[1\]\.lat_o
*1047 words\[6\]\.bits\[2\]\.lat_o
*1048 words\[6\]\.bits\[3\]\.lat_o
*1049 words\[6\]\.word_we
*1050 words\[7\]\.bits\[0\]\.lat_o
*1051 words\[7\]\.bits\[1\]\.lat_o
*1052 words\[7\]\.bits\[2\]\.lat_o
*1053 words\[7\]\.bits\[3\]\.lat_o
*1054 words\[7\]\.word_we
*1055 words\[8\]\.bits\[0\]\.lat_o
*1056 words\[8\]\.bits\[1\]\.lat_o
*1057 words\[8\]\.bits\[2\]\.lat_o
*1058 words\[8\]\.bits\[3\]\.lat_o
*1059 words\[8\]\.word_we
*1060 words\[9\]\.bits\[0\]\.lat_o
*1061 words\[9\]\.bits\[1\]\.lat_o
*1062 words\[9\]\.bits\[2\]\.lat_o
*1063 words\[9\]\.bits\[3\]\.lat_o
*1064 words\[9\]\.word_we
*1065 write_sr\[4\]
*1066 ANTENNA_1
*1067 ANTENNA_2
*1068 FILLER_0_104
*1069 FILLER_0_113
*1070 FILLER_0_118
*1071 FILLER_0_125
*1072 FILLER_0_132
*1073 FILLER_0_141
*1074 FILLER_0_149
*1075 FILLER_0_156
*1076 FILLER_0_169
*1077 FILLER_0_181
*1078 FILLER_0_193
*1079 FILLER_0_197
*1080 FILLER_0_209
*1081 FILLER_0_221
*1082 FILLER_0_225
*1083 FILLER_0_237
*1084 FILLER_0_249
*1085 FILLER_0_25
*1086 FILLER_0_253
*1087 FILLER_0_265
*1088 FILLER_0_277
*1089 FILLER_0_281
*1090 FILLER_0_29
*1091 FILLER_0_293
*1092 FILLER_0_3
*1093 FILLER_0_44
*1094 FILLER_0_51
*1095 FILLER_0_55
*1096 FILLER_0_57
*1097 FILLER_0_64
*1098 FILLER_0_71
*1099 FILLER_0_78
*1100 FILLER_0_85
*1101 FILLER_0_90
*1102 FILLER_0_97
*1103 FILLER_10_114
*1104 FILLER_10_118
*1105 FILLER_10_136
*1106 FILLER_10_141
*1107 FILLER_10_153
*1108 FILLER_10_164
*1109 FILLER_10_168
*1110 FILLER_10_174
*1111 FILLER_10_182
*1112 FILLER_10_188
*1113 FILLER_10_197
*1114 FILLER_10_204
*1115 FILLER_10_212
*1116 FILLER_10_216
*1117 FILLER_10_222
*1118 FILLER_10_230
*1119 FILLER_10_239
*1120 FILLER_10_248
*1121 FILLER_10_253
*1122 FILLER_10_26
*1123 FILLER_10_260
*1124 FILLER_10_272
*1125 FILLER_10_284
*1126 FILLER_10_29
*1127 FILLER_10_296
*1128 FILLER_10_3
*1129 FILLER_10_53
*1130 FILLER_10_60
*1131 FILLER_10_69
*1132 FILLER_10_77
*1133 FILLER_10_83
*1134 FILLER_10_85
*1135 FILLER_10_9
*1136 FILLER_10_90
*1137 FILLER_10_94
*1138 FILLER_11_110
*1139 FILLER_11_113
*1140 FILLER_11_124
*1141 FILLER_11_132
*1142 FILLER_11_14
*1143 FILLER_11_145
*1144 FILLER_11_153
*1145 FILLER_11_162
*1146 FILLER_11_169
*1147 FILLER_11_176
*1148 FILLER_11_18
*1149 FILLER_11_183
*1150 FILLER_11_187
*1151 FILLER_11_201
*1152 FILLER_11_218
*1153 FILLER_11_225
*1154 FILLER_11_232
*1155 FILLER_11_24
*1156 FILLER_11_240
*1157 FILLER_11_254
*1158 FILLER_11_265
*1159 FILLER_11_277
*1160 FILLER_11_281
*1161 FILLER_11_293
*1162 FILLER_11_3
*1163 FILLER_11_48
*1164 FILLER_11_57
*1165 FILLER_11_66
*1166 FILLER_11_90
*1167 FILLER_11_97
*1168 FILLER_12_100
*1169 FILLER_12_117
*1170 FILLER_12_123
*1171 FILLER_12_137
*1172 FILLER_12_141
*1173 FILLER_12_145
*1174 FILLER_12_151
*1175 FILLER_12_159
*1176 FILLER_12_167
*1177 FILLER_12_171
*1178 FILLER_12_177
*1179 FILLER_12_184
*1180 FILLER_12_188
*1181 FILLER_12_194
*1182 FILLER_12_197
*1183 FILLER_12_206
*1184 FILLER_12_21
*1185 FILLER_12_215
*1186 FILLER_12_221
*1187 FILLER_12_235
*1188 FILLER_12_246
*1189 FILLER_12_25
*1190 FILLER_12_253
*1191 FILLER_12_258
*1192 FILLER_12_270
*1193 FILLER_12_282
*1194 FILLER_12_29
*1195 FILLER_12_294
*1196 FILLER_12_298
*1197 FILLER_12_3
*1198 FILLER_12_41
*1199 FILLER_12_65
*1200 FILLER_12_71
*1201 FILLER_12_75
*1202 FILLER_12_82
*1203 FILLER_12_85
*1204 FILLER_12_90
*1205 FILLER_12_96
*1206 FILLER_13_101
*1207 FILLER_13_11
*1208 FILLER_13_110
*1209 FILLER_13_113
*1210 FILLER_13_123
*1211 FILLER_13_144
*1212 FILLER_13_152
*1213 FILLER_13_166
*1214 FILLER_13_169
*1215 FILLER_13_17
*1216 FILLER_13_184
*1217 FILLER_13_201
*1218 FILLER_13_212
*1219 FILLER_13_216
*1220 FILLER_13_222
*1221 FILLER_13_225
*1222 FILLER_13_232
*1223 FILLER_13_240
*1224 FILLER_13_255
*1225 FILLER_13_264
*1226 FILLER_13_276
*1227 FILLER_13_281
*1228 FILLER_13_293
*1229 FILLER_13_3
*1230 FILLER_13_34
*1231 FILLER_13_44
*1232 FILLER_13_52
*1233 FILLER_13_57
*1234 FILLER_13_66
*1235 FILLER_13_7
*1236 FILLER_13_91
*1237 FILLER_13_95
*1238 FILLER_14_113
*1239 FILLER_14_123
*1240 FILLER_14_131
*1241 FILLER_14_138
*1242 FILLER_14_141
*1243 FILLER_14_158
*1244 FILLER_14_167
*1245 FILLER_14_175
*1246 FILLER_14_192
*1247 FILLER_14_197
*1248 FILLER_14_209
*1249 FILLER_14_21
*1250 FILLER_14_222
*1251 FILLER_14_241
*1252 FILLER_14_250
*1253 FILLER_14_253
*1254 FILLER_14_265
*1255 FILLER_14_27
*1256 FILLER_14_277
*1257 FILLER_14_289
*1258 FILLER_14_29
*1259 FILLER_14_297
*1260 FILLER_14_3
*1261 FILLER_14_37
*1262 FILLER_14_43
*1263 FILLER_14_64
*1264 FILLER_14_75
*1265 FILLER_14_82
*1266 FILLER_14_85
*1267 FILLER_14_95
*1268 FILLER_14_99
*1269 FILLER_15_107
*1270 FILLER_15_111
*1271 FILLER_15_113
*1272 FILLER_15_119
*1273 FILLER_15_127
*1274 FILLER_15_136
*1275 FILLER_15_140
*1276 FILLER_15_146
*1277 FILLER_15_15
*1278 FILLER_15_155
*1279 FILLER_15_164
*1280 FILLER_15_169
*1281 FILLER_15_176
*1282 FILLER_15_184
*1283 FILLER_15_190
*1284 FILLER_15_198
*1285 FILLER_15_215
*1286 FILLER_15_222
*1287 FILLER_15_225
*1288 FILLER_15_232
*1289 FILLER_15_236
*1290 FILLER_15_243
*1291 FILLER_15_250
*1292 FILLER_15_26
*1293 FILLER_15_267
*1294 FILLER_15_275
*1295 FILLER_15_279
*1296 FILLER_15_281
*1297 FILLER_15_293
*1298 FILLER_15_3
*1299 FILLER_15_54
*1300 FILLER_15_57
*1301 FILLER_15_68
*1302 FILLER_15_76
*1303 FILLER_15_86
*1304 FILLER_15_97
*1305 FILLER_16_101
*1306 FILLER_16_105
*1307 FILLER_16_110
*1308 FILLER_16_127
*1309 FILLER_16_138
*1310 FILLER_16_14
*1311 FILLER_16_141
*1312 FILLER_16_152
*1313 FILLER_16_160
*1314 FILLER_16_169
*1315 FILLER_16_177
*1316 FILLER_16_186
*1317 FILLER_16_190
*1318 FILLER_16_194
*1319 FILLER_16_197
*1320 FILLER_16_207
*1321 FILLER_16_215
*1322 FILLER_16_222
*1323 FILLER_16_226
*1324 FILLER_16_240
*1325 FILLER_16_249
*1326 FILLER_16_253
*1327 FILLER_16_26
*1328 FILLER_16_268
*1329 FILLER_16_277
*1330 FILLER_16_289
*1331 FILLER_16_29
*1332 FILLER_16_297
*1333 FILLER_16_3
*1334 FILLER_16_40
*1335 FILLER_16_52
*1336 FILLER_16_60
*1337 FILLER_16_82
*1338 FILLER_16_85
*1339 FILLER_17_110
*1340 FILLER_17_113
*1341 FILLER_17_120
*1342 FILLER_17_124
*1343 FILLER_17_138
*1344 FILLER_17_147
*1345 FILLER_17_166
*1346 FILLER_17_169
*1347 FILLER_17_183
*1348 FILLER_17_194
*1349 FILLER_17_203
*1350 FILLER_17_21
*1351 FILLER_17_211
*1352 FILLER_17_219
*1353 FILLER_17_223
*1354 FILLER_17_225
*1355 FILLER_17_240
*1356 FILLER_17_251
*1357 FILLER_17_260
*1358 FILLER_17_269
*1359 FILLER_17_277
*1360 FILLER_17_281
*1361 FILLER_17_293
*1362 FILLER_17_3
*1363 FILLER_17_30
*1364 FILLER_17_54
*1365 FILLER_17_57
*1366 FILLER_17_63
*1367 FILLER_17_67
*1368 FILLER_17_88
*1369 FILLER_17_96
*1370 FILLER_18_11
*1371 FILLER_18_113
*1372 FILLER_18_121
*1373 FILLER_18_129
*1374 FILLER_18_138
*1375 FILLER_18_141
*1376 FILLER_18_153
*1377 FILLER_18_168
*1378 FILLER_18_185
*1379 FILLER_18_194
*1380 FILLER_18_197
*1381 FILLER_18_203
*1382 FILLER_18_21
*1383 FILLER_18_210
*1384 FILLER_18_219
*1385 FILLER_18_227
*1386 FILLER_18_234
*1387 FILLER_18_243
*1388 FILLER_18_250
*1389 FILLER_18_253
*1390 FILLER_18_269
*1391 FILLER_18_27
*1392 FILLER_18_278
*1393 FILLER_18_29
*1394 FILLER_18_290
*1395 FILLER_18_298
*1396 FILLER_18_3
*1397 FILLER_18_40
*1398 FILLER_18_44
*1399 FILLER_18_65
*1400 FILLER_18_76
*1401 FILLER_18_85
*1402 FILLER_18_91
*1403 FILLER_18_99
*1404 FILLER_19_105
*1405 FILLER_19_11
*1406 FILLER_19_111
*1407 FILLER_19_113
*1408 FILLER_19_132
*1409 FILLER_19_149
*1410 FILLER_19_166
*1411 FILLER_19_169
*1412 FILLER_19_176
*1413 FILLER_19_180
*1414 FILLER_19_188
*1415 FILLER_19_20
*1416 FILLER_19_200
*1417 FILLER_19_206
*1418 FILLER_19_213
*1419 FILLER_19_222
*1420 FILLER_19_225
*1421 FILLER_19_231
*1422 FILLER_19_240
*1423 FILLER_19_247
*1424 FILLER_19_259
*1425 FILLER_19_274
*1426 FILLER_19_281
*1427 FILLER_19_29
*1428 FILLER_19_293
*1429 FILLER_19_3
*1430 FILLER_19_42
*1431 FILLER_19_54
*1432 FILLER_19_57
*1433 FILLER_19_67
*1434 FILLER_19_7
*1435 FILLER_19_78
*1436 FILLER_19_97
*1437 FILLER_1_100
*1438 FILLER_1_107
*1439 FILLER_1_111
*1440 FILLER_1_113
*1441 FILLER_1_118
*1442 FILLER_1_125
*1443 FILLER_1_132
*1444 FILLER_1_139
*1445 FILLER_1_146
*1446 FILLER_1_156
*1447 FILLER_1_160
*1448 FILLER_1_165
*1449 FILLER_1_169
*1450 FILLER_1_184
*1451 FILLER_1_196
*1452 FILLER_1_208
*1453 FILLER_1_220
*1454 FILLER_1_225
*1455 FILLER_1_237
*1456 FILLER_1_249
*1457 FILLER_1_261
*1458 FILLER_1_273
*1459 FILLER_1_279
*1460 FILLER_1_281
*1461 FILLER_1_293
*1462 FILLER_1_3
*1463 FILLER_1_30
*1464 FILLER_1_54
*1465 FILLER_1_57
*1466 FILLER_1_79
*1467 FILLER_1_86
*1468 FILLER_1_9
*1469 FILLER_1_93
*1470 FILLER_20_11
*1471 FILLER_20_115
*1472 FILLER_20_123
*1473 FILLER_20_137
*1474 FILLER_20_141
*1475 FILLER_20_148
*1476 FILLER_20_154
*1477 FILLER_20_159
*1478 FILLER_20_167
*1479 FILLER_20_174
*1480 FILLER_20_182
*1481 FILLER_20_190
*1482 FILLER_20_197
*1483 FILLER_20_20
*1484 FILLER_20_206
*1485 FILLER_20_223
*1486 FILLER_20_230
*1487 FILLER_20_236
*1488 FILLER_20_250
*1489 FILLER_20_253
*1490 FILLER_20_268
*1491 FILLER_20_277
*1492 FILLER_20_289
*1493 FILLER_20_29
*1494 FILLER_20_297
*1495 FILLER_20_3
*1496 FILLER_20_41
*1497 FILLER_20_49
*1498 FILLER_20_54
*1499 FILLER_20_62
*1500 FILLER_20_7
*1501 FILLER_20_70
*1502 FILLER_20_76
*1503 FILLER_20_82
*1504 FILLER_20_85
*1505 FILLER_20_91
*1506 FILLER_20_98
*1507 FILLER_21_101
*1508 FILLER_21_110
*1509 FILLER_21_113
*1510 FILLER_21_12
*1511 FILLER_21_128
*1512 FILLER_21_138
*1513 FILLER_21_151
*1514 FILLER_21_158
*1515 FILLER_21_165
*1516 FILLER_21_169
*1517 FILLER_21_184
*1518 FILLER_21_193
*1519 FILLER_21_210
*1520 FILLER_21_218
*1521 FILLER_21_225
*1522 FILLER_21_232
*1523 FILLER_21_236
*1524 FILLER_21_250
*1525 FILLER_21_256
*1526 FILLER_21_270
*1527 FILLER_21_278
*1528 FILLER_21_281
*1529 FILLER_21_293
*1530 FILLER_21_3
*1531 FILLER_21_36
*1532 FILLER_21_44
*1533 FILLER_21_54
*1534 FILLER_21_57
*1535 FILLER_21_70
*1536 FILLER_21_81
*1537 FILLER_21_90
*1538 FILLER_22_105
*1539 FILLER_22_112
*1540 FILLER_22_121
*1541 FILLER_22_138
*1542 FILLER_22_141
*1543 FILLER_22_148
*1544 FILLER_22_154
*1545 FILLER_22_168
*1546 FILLER_22_176
*1547 FILLER_22_190
*1548 FILLER_22_197
*1549 FILLER_22_203
*1550 FILLER_22_21
*1551 FILLER_22_220
*1552 FILLER_22_237
*1553 FILLER_22_244
*1554 FILLER_22_253
*1555 FILLER_22_268
*1556 FILLER_22_27
*1557 FILLER_22_277
*1558 FILLER_22_289
*1559 FILLER_22_29
*1560 FILLER_22_297
*1561 FILLER_22_3
*1562 FILLER_22_40
*1563 FILLER_22_57
*1564 FILLER_22_74
*1565 FILLER_22_82
*1566 FILLER_22_85
*1567 FILLER_22_91
*1568 FILLER_23_105
*1569 FILLER_23_111
*1570 FILLER_23_113
*1571 FILLER_23_120
*1572 FILLER_23_124
*1573 FILLER_23_129
*1574 FILLER_23_137