*SPEF "ieee 1481-1999"
*DESIGN "psychogenic_neptunefixed"
*DATE "11:11:11 Fri 11 11, 1111"
*VENDOR "OpenRCX"
*PROGRAM "Parallel Extraction"
*VERSION "1.0"
*DESIGN_FLOW "NAME_SCOPE LOCAL" "PIN_CAP NONE"
*DIVIDER /
*DELIMITER :
*BUS_DELIMITER []
*T_UNIT 1 NS
*C_UNIT 1 PF
*R_UNIT 1 OHM
*L_UNIT 1 HENRY

*NAME_MAP
*1 io_in[0]
*2 io_in[1]
*3 io_in[2]
*4 io_in[3]
*5 io_in[4]
*6 io_in[5]
*7 io_in[6]
*8 io_in[7]
*9 io_out[0]
*10 io_out[1]
*11 io_out[2]
*12 io_out[3]
*13 io_out[4]
*14 io_out[5]
*15 io_out[6]
*16 io_out[7]
*19 _000_
*20 _001_
*21 _002_
*22 _003_
*23 _004_
*24 _005_
*25 _006_
*26 _007_
*27 _008_
*28 _009_
*29 _010_
*30 _011_
*31 _012_
*32 _013_
*33 _014_
*34 _015_
*35 _016_
*36 _017_
*37 _018_
*38 _019_
*39 _020_
*40 _021_
*41 _022_
*42 _023_
*43 _024_
*44 _025_
*45 _026_
*46 _027_
*47 _028_
*48 _029_
*49 _030_
*50 _031_
*51 _032_
*52 _033_
*53 _034_
*54 _035_
*55 _036_
*56 _037_
*57 _038_
*58 _039_
*59 _040_
*60 _041_
*61 _042_
*62 _043_
*63 _044_
*64 _045_
*65 _046_
*66 _047_
*67 _048_
*68 _049_
*69 _050_
*70 _051_
*71 _052_
*72 _053_
*73 _054_
*74 _055_
*75 _056_
*76 _057_
*77 _058_
*78 _059_
*79 _060_
*80 _061_
*81 _062_
*82 _063_
*83 _064_
*84 _065_
*85 _066_
*86 _067_
*87 _068_
*88 _069_
*89 _070_
*90 _071_
*91 _072_
*92 _073_
*93 _074_
*94 _075_
*95 _076_
*96 _077_
*97 _078_
*98 _079_
*99 _080_
*100 _081_
*101 _082_
*102 _083_
*103 _084_
*104 _085_
*105 _086_
*106 _087_
*107 _088_
*108 _089_
*109 _090_
*110 _091_
*111 _092_
*112 _093_
*113 _094_
*114 _095_
*115 _096_
*116 _097_
*117 _098_
*118 _099_
*119 _100_
*120 _101_
*121 _102_
*122 _103_
*123 _104_
*124 _105_
*125 _106_
*126 _107_
*127 _108_
*128 _109_
*129 _110_
*130 _111_
*131 _112_
*132 _113_
*133 _114_
*134 _115_
*135 _116_
*136 _117_
*137 _118_
*138 _119_
*139 _120_
*140 _121_
*141 _122_
*142 _123_
*143 _124_
*144 _125_
*145 _126_
*146 _127_
*147 _128_
*148 _129_
*149 _130_
*150 _131_
*151 _132_
*152 _133_
*153 _134_
*154 _135_
*155 _136_
*156 _137_
*157 _138_
*158 _139_
*159 _140_
*160 _141_
*161 _142_
*162 _143_
*163 _144_
*164 _145_
*165 _146_
*166 _147_
*167 _148_
*168 _149_
*169 _150_
*170 _151_
*171 _152_
*172 _153_
*173 _154_
*174 _155_
*175 _156_
*176 _157_
*177 _158_
*178 _159_
*179 _160_
*180 _161_
*181 _162_
*182 _163_
*183 _164_
*184 _165_
*185 _166_
*186 _167_
*187 _168_
*188 _169_
*189 _170_
*190 _171_
*191 _172_
*192 _173_
*193 _174_
*194 _175_
*195 _176_
*196 _177_
*197 _178_
*198 _179_
*199 _180_
*200 _181_
*201 _182_
*202 _183_
*203 _184_
*204 _185_
*205 _186_
*206 _187_
*207 _188_
*208 _189_
*209 _190_
*210 _191_
*211 _192_
*212 _193_
*213 _194_
*214 _195_
*215 _196_
*216 _197_
*217 _198_
*218 _199_
*219 _200_
*220 _201_
*221 _202_
*222 _203_
*223 _204_
*224 _205_
*225 _206_
*226 _207_
*227 _208_
*228 _209_
*229 _210_
*230 _211_
*231 _212_
*232 _213_
*233 _214_
*234 _215_
*235 _216_
*236 _217_
*237 _218_
*238 _219_
*239 _220_
*240 _221_
*241 _222_
*242 _223_
*243 _224_
*244 _225_
*245 _226_
*246 _227_
*247 _228_
*248 _229_
*249 _230_
*250 _231_
*251 _232_
*252 _233_
*253 _234_
*254 _235_
*255 _236_
*256 _237_
*257 _238_
*258 _239_
*259 _240_
*260 _241_
*261 _242_
*262 _243_
*263 _244_
*264 _245_
*265 _246_
*266 _247_
*267 _248_
*268 _249_
*269 _250_
*270 _251_
*271 _252_
*272 _253_
*273 _254_
*274 _255_
*275 _256_
*276 _257_
*277 _258_
*278 _259_
*279 _260_
*280 _261_
*281 _262_
*282 _263_
*283 _264_
*284 _265_
*285 _266_
*286 _267_
*287 _268_
*288 _269_
*289 _270_
*290 _271_
*291 _272_
*292 _273_
*293 _274_
*294 _275_
*295 _276_
*296 _277_
*297 _278_
*298 _279_
*299 _280_
*300 _281_
*301 _282_
*302 _283_
*303 _284_
*304 _285_
*305 _286_
*306 _287_
*307 _288_
*308 _289_
*309 _290_
*310 _291_
*311 _292_
*312 _293_
*313 _294_
*314 _295_
*315 _296_
*316 _297_
*317 _298_
*318 _299_
*319 _300_
*320 _301_
*321 _302_
*322 _303_
*323 _304_
*324 _305_
*325 _306_
*326 _307_
*327 _308_
*328 _309_
*329 _310_
*330 _311_
*331 _312_
*332 _313_
*333 _314_
*334 _315_
*335 _316_
*336 _317_
*337 _318_
*338 _319_
*339 _320_
*340 _321_
*341 _322_
*342 _323_
*343 _324_
*344 _325_
*345 _326_
*346 _327_
*347 _328_
*348 _329_
*349 _330_
*350 _331_
*351 _332_
*352 _333_
*353 _334_
*354 _335_
*355 _336_
*356 _337_
*357 _338_
*358 _339_
*359 _340_
*360 _341_
*361 _342_
*362 _343_
*363 _344_
*364 _345_
*365 _346_
*366 _347_
*367 _348_
*368 _349_
*369 _350_
*370 _351_
*371 _352_
*372 _353_
*373 _354_
*374 _355_
*375 _356_
*376 _357_
*377 _358_
*378 _359_
*379 _360_
*380 _361_
*381 _362_
*382 _363_
*383 _364_
*384 _365_
*385 _366_
*386 _367_
*387 _368_
*388 _369_
*389 _370_
*390 _371_
*391 _372_
*392 _373_
*393 _374_
*394 _375_
*395 _376_
*396 _377_
*397 _378_
*398 _379_
*399 _380_
*400 _381_
*401 _382_
*402 _383_
*403 _384_
*404 clknet_0_io_in[0]
*405 clknet_3_0__leaf_io_in[0]
*406 clknet_3_1__leaf_io_in[0]
*407 clknet_3_2__leaf_io_in[0]
*408 clknet_3_3__leaf_io_in[0]
*409 clknet_3_4__leaf_io_in[0]
*410 clknet_3_5__leaf_io_in[0]
*411 clknet_3_6__leaf_io_in[0]
*412 clknet_3_7__leaf_io_in[0]
*413 net1
*414 net2
*415 net3
*416 net4
*417 net5
*418 tuner\.discriminator\.curNoteIndex\[0\]
*419 tuner\.discriminator\.curNoteIndex\[1\]
*420 tuner\.discriminator\.curNoteIndex\[2\]
*421 tuner\.discriminator\.curState\[0\]
*422 tuner\.discriminator\.curState\[1\]
*423 tuner\.discriminator\.curState\[2\]
*424 tuner\.discriminator\.inputFreqHigher
*425 tuner\.discriminator\.match_exact
*426 tuner\.discriminator\.match_far
*427 tuner\.discriminator\.match_high
*428 tuner\.discriminator\.noMatchCount\[0\]
*429 tuner\.discriminator\.noMatchCount\[1\]
*430 tuner\.discriminator\.noMatchCount\[2\]
*431 tuner\.discriminator\.noMatchCount\[3\]
*432 tuner\.discriminator\.noMatchCount\[4\]
*433 tuner\.discriminator\.note\[0\]
*434 tuner\.discriminator\.note\[1\]
*435 tuner\.discriminator\.note\[2\]
*436 tuner\.discriminator\.readingProximityResult\[0\]
*437 tuner\.discriminator\.readingProximityResult\[1\]
*438 tuner\.discriminator\.readingProximityResult\[2\]
*439 tuner\.discriminator\.readingProximityResult\[3\]
*440 tuner\.discriminator\.readingProximityResult\[4\]
*441 tuner\.discriminator\.subtractResult\[0\]
*442 tuner\.discriminator\.subtractResult\[1\]
*443 tuner\.discriminator\.subtractResult\[2\]
*444 tuner\.discriminator\.subtractResult\[3\]
*445 tuner\.discriminator\.subtractResult\[4\]
*446 tuner\.discriminator\.subtractResult\[5\]
*447 tuner\.discriminator\.subtractResult\[6\]
*448 tuner\.discriminator\.subtractResult\[7\]
*449 tuner\.display\.notedisplay\.segments\[1\]
*450 tuner\.display\.notedisplay\.segments\[2\]
*451 tuner\.display\.notedisplay\.segments\[3\]
*452 tuner\.display\.notedisplay\.segments\[4\]
*453 tuner\.display\.notedisplay\.segments\[5\]
*454 tuner\.display\.notedisplay\.segments\[6\]
*455 tuner\.display\.notedisplay\.segments\[7\]
*456 tuner\.display\.notedisplay_value\[0\]
*457 tuner\.display\.notedisplay_value\[1\]
*458 tuner\.display\.notedisplay_value\[2\]
*459 tuner\.display\.proxdisplay\.segments\[1\]
*460 tuner\.display\.proxdisplay\.segments\[2\]
*461 tuner\.display\.proxdisplay\.segments\[3\]
*462 tuner\.display\.proxdisplay\.segments\[4\]
*463 tuner\.display\.proxdisplay\.segments\[7\]
*464 tuner\.display\.proxdisplay_value\[0\]
*465 tuner\.display\.proxdisplay_value\[1\]
*466 tuner\.display\.proxdisplay_value\[2\]
*467 tuner\.display\.proximitySelect
*468 tuner\.pulsecounter\.clockCount\[0\]
*469 tuner\.pulsecounter\.clockCount\[10\]
*470 tuner\.pulsecounter\.clockCount\[1\]
*471 tuner\.pulsecounter\.clockCount\[2\]
*472 tuner\.pulsecounter\.clockCount\[3\]
*473 tuner\.pulsecounter\.clockCount\[4\]
*474 tuner\.pulsecounter\.clockCount\[5\]
*475 tuner\.pulsecounter\.clockCount\[6\]
*476 tuner\.pulsecounter\.clockCount\[7\]
*477 tuner\.pulsecounter\.clockCount\[8\]
*478 tuner\.pulsecounter\.clockCount\[9\]
*479 tuner\.pulsecounter\.edge_detect\.ffsync\.stage0
*480 tuner\.pulsecounter\.edge_detect\.ffsync\.stage1
*481 tuner\.pulsecounter\.edge_detect\.output
*482 tuner\.pulsecounter\.edge_detect\.seenRising
*483 tuner\.pulsecounter\.pulseCount\[0\]
*484 tuner\.pulsecounter\.pulseCount\[1\]
*485 tuner\.pulsecounter\.pulseCount\[2\]
*486 tuner\.pulsecounter\.pulseCount\[3\]
*487 tuner\.pulsecounter\.pulseCount\[4\]
*488 tuner\.pulsecounter\.pulseCount\[5\]
*489 tuner\.pulsecounter\.pulseCount\[6\]
*490 tuner\.pulsecounter\.pulseCount\[7\]
*491 tuner\.pulsecounter\.runningPulseCount\[0\]
*492 tuner\.pulsecounter\.runningPulseCount\[1\]
*493 tuner\.pulsecounter\.runningPulseCount\[2\]
*494 tuner\.pulsecounter\.runningPulseCount\[3\]
*495 tuner\.pulsecounter\.runningPulseCount\[4\]
*496 tuner\.pulsecounter\.runningPulseCount\[5\]
*497 tuner\.pulsecounter\.runningPulseCount\[6\]
*498 tuner\.pulsecounter\.runningPulseCount\[7\]
*499 tuner\.pulsecounter\.singlePeriodClockCount\[0\]
*500 tuner\.pulsecounter\.singlePeriodClockCount\[10\]
*501 tuner\.pulsecounter\.singlePeriodClockCount\[2\]
*502 tuner\.pulsecounter\.singlePeriodClockCount\[3\]
*503 tuner\.pulsecounter\.singlePeriodClockCount\[4\]
*504 tuner\.pulsecounter\.singlePeriodClockCount\[5\]
*505 tuner\.pulsecounter\.singlePeriodClockCount\[6\]
*506 tuner\.pulsecounter\.singlePeriodClockCount\[7\]
*507 tuner\.pulsecounter\.singlePeriodClockCount\[9\]
*508 ANTENNA_1
*509 ANTENNA_10
*510 ANTENNA_2
*511 ANTENNA_3
*512 ANTENNA_4
*513 ANTENNA_5
*514 ANTENNA_6
*515 ANTENNA_7
*516 ANTENNA_8
*517 ANTENNA_9
*518 FILLER_0_103
*519 FILLER_0_110
*520 FILLER_0_113
*521 FILLER_0_131
*522 FILLER_0_139
*523 FILLER_0_141
*524 FILLER_0_153
*525 FILLER_0_165
*526 FILLER_0_169
*527 FILLER_0_181
*528 FILLER_0_193
*529 FILLER_0_197
*530 FILLER_0_209
*531 FILLER_0_221
*532 FILLER_0_225
*533 FILLER_0_237
*534 FILLER_0_249
*535 FILLER_0_253
*536 FILLER_0_26
*537 FILLER_0_265
*538 FILLER_0_277
*539 FILLER_0_281
*540 FILLER_0_29
*541 FILLER_0_293
*542 FILLER_0_3
*543 FILLER_0_47
*544 FILLER_0_55
*545 FILLER_0_57
*546 FILLER_0_75
*547 FILLER_0_8
*548 FILLER_0_83
*549 FILLER_0_85
*550 FILLER_10_103
*551 FILLER_10_107
*552 FILLER_10_111
*553 FILLER_10_122
*554 FILLER_10_130
*555 FILLER_10_137
*556 FILLER_10_141
*557 FILLER_10_148
*558 FILLER_10_159
*559 FILLER_10_166
*560 FILLER_10_172
*561 FILLER_10_178
*562 FILLER_10_187
*563 FILLER_10_194
*564 FILLER_10_197
*565 FILLER_10_203
*566 FILLER_10_212
*567 FILLER_10_22
*568 FILLER_10_224
*569 FILLER_10_236
*570 FILLER_10_248
*571 FILLER_10_253
*572 FILLER_10_265
*573 FILLER_10_277
*574 FILLER_10_289
*575 FILLER_10_29
*576 FILLER_10_297
*577 FILLER_10_3
*578 FILLER_10_48
*579 FILLER_10_60
*580 FILLER_10_79
*581 FILLER_10_83
*582 FILLER_10_85
*583 FILLER_11_107
*584 FILLER_11_111
*585 FILLER_11_113
*586 FILLER_11_131
*587 FILLER_11_138
*588 FILLER_11_142
*589 FILLER_11_149
*590 FILLER_11_15
*591 FILLER_11_155
*592 FILLER_11_164
*593 FILLER_11_169
*594 FILLER_11_177
*595 FILLER_11_183
*596 FILLER_11_191
*597 FILLER_11_198
*598 FILLER_11_210
*599 FILLER_11_219
*600 FILLER_11_223
*601 FILLER_11_225
*602 FILLER_11_235
*603 FILLER_11_250
*604 FILLER_11_262
*605 FILLER_11_274
*606 FILLER_11_281
*607 FILLER_11_293
*608 FILLER_11_3
*609 FILLER_11_36
*610 FILLER_11_48
*611 FILLER_11_57
*612 FILLER_11_65
*613 FILLER_11_69
*614 FILLER_11_93
*615 FILLER_12_103
*616 FILLER_12_123
*617 FILLER_12_133
*618 FILLER_12_139
*619 FILLER_12_141
*620 FILLER_12_153
*621 FILLER_12_164
*622 FILLER_12_180
*623 FILLER_12_186
*624 FILLER_12_193
*625 FILLER_12_197
*626 FILLER_12_205
*627 FILLER_12_211
*628 FILLER_12_219
*629 FILLER_12_223
*630 FILLER_12_231
*631 FILLER_12_242
*632 FILLER_12_250
*633 FILLER_12_253
*634 FILLER_12_26
*635 FILLER_12_265
*636 FILLER_12_277
*637 FILLER_12_289
*638 FILLER_12_29
*639 FILLER_12_297
*640 FILLER_12_3
*641 FILLER_12_37
*642 FILLER_12_54
*643 FILLER_12_82
*644 FILLER_12_85
*645 FILLER_12_9
*646 FILLER_13_110
*647 FILLER_13_113
*648 FILLER_13_122
*649 FILLER_13_132
*650 FILLER_13_141
*651 FILLER_13_149
*652 FILLER_13_161
*653 FILLER_13_167
*654 FILLER_13_169
*655 FILLER_13_177
*656 FILLER_13_189
*657 FILLER_13_201
*658 FILLER_13_213
*659 FILLER_13_221
*660 FILLER_13_225
*661 FILLER_13_23
*662 FILLER_13_233
*663 FILLER_13_238
*664 FILLER_13_250
*665 FILLER_13_262
*666 FILLER_13_274
*667 FILLER_13_281
*668 FILLER_13_289
*669 FILLER_13_297
*670 FILLER_13_3
*671 FILLER_13_31
*672 FILLER_13_49
*673 FILLER_13_55
*674 FILLER_13_57
*675 FILLER_13_76
*676 FILLER_13_90
*677 FILLER_14_100
*678 FILLER_14_104
*679 FILLER_14_121
*680 FILLER_14_131
*681 FILLER_14_138
*682 FILLER_14_141
*683 FILLER_14_148
*684 FILLER_14_162
*685 FILLER_14_174
*686 FILLER_14_182
*687 FILLER_14_194
*688 FILLER_14_197
*689 FILLER_14_205
*690 FILLER_14_213
*691 FILLER_14_225
*692 FILLER_14_23
*693 FILLER_14_237
*694 FILLER_14_249
*695 FILLER_14_253
*696 FILLER_14_260
*697 FILLER_14_27
*698 FILLER_14_272
*699 FILLER_14_284
*700 FILLER_14_29
*701 FILLER_14_296
*702 FILLER_14_3
*703 FILLER_14_41
*704 FILLER_14_45
*705 FILLER_14_62
*706 FILLER_14_82
*707 FILLER_14_85
*708 FILLER_14_91
*709 FILLER_15_105
*710 FILLER_15_111
*711 FILLER_15_113
*712 FILLER_15_120
*713 FILLER_15_127
*714 FILLER_15_136
*715 FILLER_15_145
*716 FILLER_15_157
*717 FILLER_15_166
*718 FILLER_15_169
*719 FILLER_15_179
*720 FILLER_15_190
*721 FILLER_15_194
*722 FILLER_15_202
*723 FILLER_15_214
*724 FILLER_15_222
*725 FILLER_15_225
*726 FILLER_15_231
*727 FILLER_15_237
*728 FILLER_15_249
*729 FILLER_15_261
*730 FILLER_15_273
*731 FILLER_15_279
*732 FILLER_15_281
*733 FILLER_15_293
*734 FILLER_15_3
*735 FILLER_15_33
*736 FILLER_15_54
*737 FILLER_15_57
*738 FILLER_15_76
*739 FILLER_15_9
*740 FILLER_15_96
*741 FILLER_16_103
*742 FILLER_16_111
*743 FILLER_16_119
*744 FILLER_16_127
*745 FILLER_16_134
*746 FILLER_16_141
*747 FILLER_16_146
*748 FILLER_16_150
*749 FILLER_16_160
*750 FILLER_16_167
*751 FILLER_16_179
*752 FILLER_16_185
*753 FILLER_16_194
*754 FILLER_16_197
*755 FILLER_16_202
*756 FILLER_16_210
*757 FILLER_16_22
*758 FILLER_16_220
*759 FILLER_16_232
*760 FILLER_16_244
*761 FILLER_16_253
*762 FILLER_16_265
*763 FILLER_16_277
*764 FILLER_16_289
*765 FILLER_16_29
*766 FILLER_16_297
*767 FILLER_16_3
*768 FILLER_16_35
*769 FILLER_16_41
*770 FILLER_16_65
*771 FILLER_16_72
*772 FILLER_16_76
*773 FILLER_16_82
*774 FILLER_16_85
*775 FILLER_17_109
*776 FILLER_17_113
*777 FILLER_17_120
*778 FILLER_17_128
*779 FILLER_17_138
*780 FILLER_17_145
*781 FILLER_17_149
*782 FILLER_17_155
*783 FILLER_17_161
*784 FILLER_17_166
*785 FILLER_17_169
*786 FILLER_17_178
*787 FILLER_17_189
*788 FILLER_17_197
*789 FILLER_17_203
*790 FILLER_17_207
*791 FILLER_17_215
*792 FILLER_17_223
*793 FILLER_17_225
*794 FILLER_17_237
*795 FILLER_17_249
*796 FILLER_17_261
*797 FILLER_17_273
*798 FILLER_17_279
*799 FILLER_17_281
*800 FILLER_17_293
*801 FILLER_17_3
*802 FILLER_17_36
*803 FILLER_17_48
*804 FILLER_17_57
*805 FILLER_17_61
*806 FILLER_17_78
*807 FILLER_17_8
*808 FILLER_17_98
*809 FILLER_18_104
*810 FILLER_18_110
*811 FILLER_18_115
*812 FILLER_18_119
*813 FILLER_18_123
*814 FILLER_18_127
*815 FILLER_18_131
*816 FILLER_18_138
*817 FILLER_18_141
*818 FILLER_18_149
*819 FILLER_18_158
*820 FILLER_18_166
*821 FILLER_18_172
*822 FILLER_18_179
*823 FILLER_18_189
*824 FILLER_18_195
*825 FILLER_18_197
*826 FILLER_18_207
*827 FILLER_18_219
*828 FILLER_18_223
*829 FILLER_18_229
*830 FILLER_18_241
*831 FILLER_18_249
*832 FILLER_18_253
*833 FILLER_18_26
*834 FILLER_18_265
*835 FILLER_18_277
*836 FILLER_18_289
*837 FILLER_18_29
*838 FILLER_18_297
*839 FILLER_18_3
*840 FILLER_18_37
*841 FILLER_18_54
*842 FILLER_18_78
*843 FILLER_18_85
*844 FILLER_18_9
*845 FILLER_19_11
*846 FILLER_19_110
*847 FILLER_19_113
*848 FILLER_19_122
*849 FILLER_19_132
*850 FILLER_19_140
*851 FILLER_19_150
*852 FILLER_19_159
*853 FILLER_19_167
*854 FILLER_19_169
*855 FILLER_19_179
*856 FILLER_19_187
*857 FILLER_19_196
*858 FILLER_19_203
*859 FILLER_19_215
*860 FILLER_19_223
*861 FILLER_19_225
*862 FILLER_19_237
*863 FILLER_19_249
*864 FILLER_19_261
*865 FILLER_19_273
*866 FILLER_19_279
*867 FILLER_19_281
*868 FILLER_19_293
*869 FILLER_19_3
*870 FILLER_19_32
*871 FILLER_19_54
*872 FILLER_19_57
*873 FILLER_19_80
*874 FILLER_19_89
*875 FILLER_19_99
*876 FILLER_1_103
*877 FILLER_1_110
*878 FILLER_1_113
*879 FILLER_1_125
*880 FILLER_1_132
*881 FILLER_1_144
*882 FILLER_1_156
*883 FILLER_1_163
*884 FILLER_1_167
*885 FILLER_1_169
*886 FILLER_1_176
*887 FILLER_1_183
*888 FILLER_1_195
*889 FILLER_1_207
*890 FILLER_1_219
*891 FILLER_1_223
*892 FILLER_1_225
*893 FILLER_1_237
*894 FILLER_1_249
*895 FILLER_1_25
*896 FILLER_1_261
*897 FILLER_1_273
*898 FILLER_1_279
*899 FILLER_1_281
*900 FILLER_1_293
*901 FILLER_1_3
*902 FILLER_1_54
*903 FILLER_1_57
*904 FILLER_1_65
*905 FILLER_1_7
*906 FILLER_1_83
*907 FILLER_20_100
*908 FILLER_20_106
*909 FILLER_20_113
*910 FILLER_20_119
*911 FILLER_20_125
*912 FILLER_20_134
*913 FILLER_20_141
*914 FILLER_20_152
*915 FILLER_20_158
*916 FILLER_20_163
*917 FILLER_20_175
*918 FILLER_20_187
*919 FILLER_20_195
*920 FILLER_20_197
*921 FILLER_20_209
*922 FILLER_20_217
*923 FILLER_20_227
*924 FILLER_20_23
*925 FILLER_20_239
*926 FILLER_20_251
*927 FILLER_20_253
*928 FILLER_20_265
*929 FILLER_20_27
*930 FILLER_20_277
*931 FILLER_20_289
*932 FILLER_20_29
*933 FILLER_20_297
*934 FILLER_20_3
*935 FILLER_20_41
*936 FILLER_20_65
*937 FILLER_20_77
*938 FILLER_20_83
*939 FILLER_20_85
*940 FILLER_20_93
*941 FILLER_21_107
*942 FILLER_21_111
*943 FILLER_21_113
*944 FILLER_21_123
*945 FILLER_21_134
*946 FILLER_21_142
*947 FILLER_21_148
*948 FILLER_21_153
*949 FILLER_21_161
*950 FILLER_21_167
*951 FILLER_21_169
*952 FILLER_21_177
*953 FILLER_21_184
*954 FILLER_21_196
*955 FILLER_21_208
*956 FILLER_21_220
*957 FILLER_21_225
*958 FILLER_21_236
*959 FILLER_21_248
*960 FILLER_21_260
*961 FILLER_21_27
*962 FILLER_21_272
*963 FILLER_21_281
*964 FILLER_21_293
*965 FILLER_21_3
*966 FILLER_21_47
*967 FILLER_21_55
*968 FILLER_21_57
*969 FILLER_21_62
*970 FILLER_21_82
*971 FILLER_21_92
*972 FILLER_21_96
*973 FILLER_22_103
*974 FILLER_22_111
*975 FILLER_22_116
*976 FILLER_22_129
*977 FILLER_22_137
*978 FILLER_22_141
*979 FILLER_22_146
*980 FILLER_22_157
*981 FILLER_22_169
*982 FILLER_22_175
*983 FILLER_22_183
*984 FILLER_22_195
*985 FILLER_22_197
*986 FILLER_22_209
*987 FILLER_22_22
*988 FILLER_22_221
*989 FILLER_22_233
*990 FILLER_22_245
*991 FILLER_22_251
*992 FILLER_22_253
*993 FILLER_22_265
*994 FILLER_22_277
*995 FILLER_22_289
*996 FILLER_22_29
*997 FILLER_22_297
*998 FILLER_22_3
*999 FILLER_22_41
*1000 FILLER_22_45
*1001 FILLER_22_48
*1002 FILLER_22_67
*1003 FILLER_22_82
*1004 FILLER_22_85
*1005 FILLER_23_102
*1006 FILLER_23_110
*1007 FILLER_23_113
*1008 FILLER_23_123
*1009 FILLER_23_129
*1010 FILLER_23_135
*1011 FILLER_23_147
*1012 FILLER_23_155
*1013 FILLER_23_163
*1014 FILLER_23_167
*1015 FILLER_23_169
*1016 FILLER_23_178
*1017 FILLER_23_189
*1018 FILLER_23_198
*1019 FILLER_23_210
*1020 FILLER_23_222
*1021 FILLER_23_225
*1022 FILLER_23_237
*1023 FILLER_23_249
*1024 FILLER_23_261
*1025 FILLER_23_27
*1026 FILLER_23_273
*1027 FILLER_23_279
*1028 FILLER_23_281
*1029 FILLER_23_293
*1030 FILLER_23_3
*1031 FILLER_23_33
*1032 FILLER_23_50
*1033 FILLER_23_57
*1034 FILLER_23_65
*1035 FILLER_23_70
*1036 FILLER_23_81
*1037 FILLER_23_93
*1038 FILLER_24_103
*1039 FILLER_24_109
*1040 FILLER_24_116
*1041 FILLER_24_127
*1042 FILLER_24_138
*1043 FILLER_24_141
*1044 FILLER_24_146
*1045 FILLER_24_159
*1046 FILLER_24_167
*1047 FILLER_24_178
*1048 FILLER_24_189
*1049 FILLER_24_195
*1050 FILLER_24_197
*1051 FILLER_24_209
*1052 FILLER_24_22
*1053 FILLER_24_221
*1054 FILLER_24_233
*1055 FILLER_24_245
*1056 FILLER_24_251
*1057 FILLER_24_253
*1058 FILLER_24_265
*1059 FILLER_24_277
*1060 FILLER_24_289
*1061 FILLER_24_29
*1062 FILLER_24_297
*1063 FILLER_24_3
*1064 FILLER_24_41
*1065 FILLER_24_65
*1066 FILLER_24_78
*1067 FILLER_24_85
*1068 FILLER_24_99
*1069 FILLER_25_110
*1070 FILLER_25_113
*1071 FILLER_25_117
*1072 FILLER_25_127
*1073 FILLER_25_137
*1074 FILLER_25_145
*1075 FILLER_25_165
*1076 FILLER_25_169
*1077 FILLER_25_178
*1078 FILLER_25_193
*1079 FILLER_25_202
*1080 FILLER_25_214
*1081 FILLER_25_222
*1082 FILLER_25_225
*1083 FILLER_25_237
*1084 FILLER_25_24
*1085 FILLER_25_249
*1086 FILLER_25_261
*1087 FILLER_25_273
*1088 FILLER_25_279
*1089 FILLER_25_281
*1090 FILLER_25_293
*1091 FILLER_25_3
*1092 FILLER_25_30
*1093 FILLER_25_47
*1094 FILLER_25_55
*1095 FILLER_25_57
*1096 FILLER_25_62
*1097 FILLER_25_7
*1098 FILLER_25_74
*1099 FILLER_25_79
*1100 FILLER_25_88
*1101 FILLER_25_94
*1102 FILLER_25_98
*1103 FILLER_26_108
*1104 FILLER_26_116
*1105 FILLER_26_120
*1106 FILLER_26_129
*1107 FILLER_26_138
*1108 FILLER_26_141
*1109 FILLER_26_151
*1110 FILLER_26_167
*1111 FILLER_26_174
*1112 FILLER_26_187
*1113 FILLER_26_195
*1114 FILLER_26_197
*1115 FILLER_26_205
*1116 FILLER_26_217
*1117 FILLER_26_22
*1118 FILLER_26_229
*1119 FILLER_26_241
*1120 FILLER_26_249
*1121 FILLER_26_253
*1122 FILLER_26_265
*1123 FILLER_26_277
*1124 FILLER_26_289
*1125 FILLER_26_29
*1126 FILLER_26_297
*1127 FILLER_26_3
*1128 FILLER_26_41
*1129 FILLER_26_65
*1130 FILLER_26_77
*1131 FILLER_26_83
*1132 FILLER_26_85
*1133 FILLER_26_92
*1134 FILLER_26_99
*1135 FILLER_27_110
*1136 FILLER_27_113
*1137 FILLER_27_119
*1138 FILLER_27_127
*1139 FILLER_27_134
*1140 FILLER_27_138
*1141 FILLER_27_144
*1142 FILLER_27_15
*1143 FILLER_27_152
*1144 FILLER_27_164
*1145 FILLER_27_169
*1146 FILLER_27_182
*1147 FILLER_27_188
*1148 FILLER_27_192
*1149 FILLER_27_210
*1150 FILLER_27_222
*1151 FILLER_27_225
*1152 FILLER_27_237
*1153 FILLER_27_249
*1154 FILLER_27_261
*1155 FILLER_27_273
*1156 FILLER_27_279
*1157 FILLER_27_281
*1158 FILLER_27_293
*1159 FILLER_27_3
*1160 FILLER_27_36
*1161 FILLER_27_44
*1162 FILLER_27_54
*1163 FILLER_27_57
*1164 FILLER_27_75
*1165 FILLER_27_79
*1166 FILLER_27_83
*1167 FILLER_27_92
*1168 FILLER_28_103
*1169 FILLER_28_107
*1170 FILLER_28_114
*1171 FILLER_28_125
*1172 FILLER_28_133
*1173 FILLER_28_138
*1174 FILLER_28_141
*1175 FILLER_28_147
*1176 FILLER_28_155
*1177 FILLER_28_167
*1178 FILLER_28_177
*1179 FILLER_28_185
*1180 FILLER_28_194
*1181 FILLER_28_197
*1182 FILLER_28_206
*1183 FILLER_28_21
*1184 FILLER_28_218
*1185 FILLER_28_230
*1186 FILLER_28_242
*1187 FILLER_28_250
*1188 FILLER_28_253
*1189 FILLER_28_265
*1190 FILLER_28_27
*1191 FILLER_28_277
*1192 FILLER_28_289
*1193 FILLER_28_29
*1194 FILLER_28_297
*1195 FILLER_28_3
*1196 FILLER_28_37
*1197 FILLER_28_54
*1198 FILLER_28_74
*1199 FILLER_28_81
*1200 FILLER_28_85
*1201 FILLER_29_107
*1202 FILLER_29_111
*1203 FILLER_29_113
*1204 FILLER_29_125
*1205 FILLER_29_133
*1206 FILLER_29_139
*1207 FILLER_29_145
*1208 FILLER_29_15
*1209 FILLER_29_151
*1210 FILLER_29_161
*1211 FILLER_29_167
*1212 FILLER_29_169
*1213 FILLER_29_182
*1214 FILLER_29_189
*1215 FILLER_29_201
*1216 FILLER_29_213
*1217 FILLER_29_221
*1218 FILLER_29_225
*1219 FILLER_29_237
*1220 FILLER_29_249
*1221 FILLER_29_261
*1222 FILLER_29_273
*1223 FILLER_29_279
*1224 FILLER_29_281
*1225 FILLER_29_293
*1226 FILLER_29_3
*1227 FILLER_29_32
*1228 FILLER_29_44
*1229 FILLER_29_57
*1230 FILLER_29_69
*1231 FILLER_29_72
*1232 FILLER_29_90
*1233 FILLER_29_98
*1234 FILLER_2_101
*1235 FILLER_2_105
*1236 FILLER_2_123
*1237 FILLER_2_132
*1238 FILLER_2_141
*1239 FILLER_2_153
*1240 FILLER_2_165
*1241 FILLER_2_171
*1242 FILLER_2_183
*1243 FILLER_2_195
*1244 FILLER_2_197
*1245 FILLER_2_209
*1246 FILLER_2_221
*1247 FILLER_2_233
*1248 FILLER_2_245
*1249 FILLER_2_251
*1250 FILLER_2_253
*1251 FILLER_2_26
*1252 FILLER_2_265
*1253 FILLER_2_277
*1254 FILLER_2_289
*1255 FILLER_2_29
*1256 FILLER_2_297
*1257 FILLER_2_3
*1258 FILLER_2_41
*1259 FILLER_2_64
*1260 FILLER_2_81
*1261 FILLER_30_105
*1262 FILLER_30_109
*1263 FILLER_30_113
*1264 FILLER_30_121
*1265 FILLER_30_127
*1266 FILLER_30_137
*1267 FILLER_30_14
*1268 FILLER_30_141
*1269 FILLER_30_151
*1270 FILLER_30_159
*1271 FILLER_30_167
*1272 FILLER_30_176
*1273 FILLER_30_188
*1274 FILLER_30_197
*1275 FILLER_30_209
*1276 FILLER_30_221
*1277 FILLER_30_233
*1278 FILLER_30_245
*1279 FILLER_30_251
*1280 FILLER_30_253
*1281 FILLER_30_26
*1282 FILLER_30_265
*1283 FILLER_30_277
*1284 FILLER_30_289
*1285 FILLER_30_29
*1286 FILLER_30_297
*1287 FILLER_30_3
*1288 FILLER_30_41
*1289 FILLER_30_47
*1290 FILLER_30_64
*1291 FILLER_30_74
*1292 FILLER_30_82
*1293 FILLER_30_85
*1294 FILLER_30_96
*1295 FILLER_31_106
*1296 FILLER_31_113
*1297 FILLER_31_121
*1298 FILLER_31_128
*1299 FILLER_31_136
*1300 FILLER_31_142
*1301 FILLER_31_155
*1302 FILLER_31_167
*1303 FILLER_31_169
*1304 FILLER_31_173
*1305 FILLER_31_179
*1306 FILLER_31_190
*1307 FILLER_31_197
*1308 FILLER_31_209
*1309 FILLER_31_21
*1310 FILLER_31_221
*1311 FILLER_31_225
*1312 FILLER_31_237
*1313 FILLER_31_249
*1314 FILLER_31_261
*1315 FILLER_31_273
*1316 FILLER_31_279
*1317 FILLER_31_281
*1318 FILLER_31_29
*1319 FILLER_31_293
*1320 FILLER_31_3
*1321 FILLER_31_37
*1322 FILLER_31_54
*1323 FILLER_31_57
*1324 FILLER_31_69
*1325 FILLER_31_78
*1326 FILLER_31_86
*1327 FILLER_31_99
*1328 FILLER_32_103
*1329 FILLER_32_110
*1330 FILLER_32_124
*1331 FILLER_32_130
*1332 FILLER_32_138
*1333 FILLER_32_141
*1334 FILLER_32_151
*1335 FILLER_32_155
*1336 FILLER_32_163
*1337 FILLER_32_169
*1338 FILLER_32_177
*1339 FILLER_32_189
*1340 FILLER_32_195
*1341 FILLER_32_197
*1342 FILLER_32_202
*1343 FILLER_32_21
*1344 FILLER_32_214
*1345 FILLER_32_226
*1346 FILLER_32_238
*1347 FILLER_32_250
*1348 FILLER_32_253
*1349 FILLER_32_265
*1350 FILLER_32_27
*1351 FILLER_32_277
*1352 FILLER_32_289
*1353 FILLER_32_29
*1354 FILLER_32_297
*1355 FILLER_32_3
*1356 FILLER_32_41
*1357 FILLER_32_63
*1358 FILLER_32_80
*1359 FILLER_32_85
*1360 FILLER_32_91
*1361 FILLER_33_110
*1362 FILLER_33_113
*1363 FILLER_33_120
*1364 FILLER_33_124
*1365 FILLER_33_134
*1366 FILLER_33_140
*1367 FILLER_33_149
*1368 FILLER_33_153
*1369 FILLER_33_16
*1370 FILLER_33_161
*1371 FILLER_33_167
*1372 FILLER_33_169
*1373 FILLER_33_180
*1374 FILLER_33_199
*1375 FILLER_33_20
*1376 FILLER_33_214
*1377 FILLER_33_222
*1378 FILLER_33_225
*1379 FILLER_33_237
*1380 FILLER_33_24
*1381 FILLER_33_249
*1382 FILLER_33_261
*1383 FILLER_33_273
*1384 FILLER_33_279
*1385 FILLER_33_281
*1386 FILLER_33_293
*1387 FILLER_33_3
*1388 FILLER_33_37
*1389 FILLER_33_49
*1390 FILLER_33_55
*1391 FILLER_33_57
*1392 FILLER_33_76
*1393 FILLER_33_80
*1394 FILLER_33_89
*1395 FILLER_33_98
*1396 FILLER_34_103
*1397 FILLER_34_109
*1398 FILLER_34_117
*1399 FILLER_34_125
*1400 FILLER_34_13
*1401 FILLER_34_131
*1402 FILLER_34_139
*1403 FILLER_34_141
*1404 FILLER_34_150
*1405 FILLER_34_162
*1406 FILLER_34_174
*1407 FILLER_34_186
*1408 FILLER_34_194
*1409 FILLER_34_197
*1410 FILLER_34_209
*1411 FILLER_34_221
*1412 FILLER_34_233
*1413 FILLER_34_245
*1414 FILLER_34_25
*1415 FILLER_34_251
*1416 FILLER_34_253
*1417 FILLER_34_265
*1418 FILLER_34_277
*1419 FILLER_34_289
*1420 FILLER_34_29
*1421 FILLER_34_297
*1422 FILLER_34_3
*1423 FILLER_34_48
*1424 FILLER_34_54
*1425 FILLER_34_58
*1426 FILLER_34_65
*1427 FILLER_34_72
*1428 FILLER_34_79
*1429 FILLER_34_83
*1430 FILLER_34_85
*1431 FILLER_34_89
*1432 FILLER_34_9
*1433 FILLER_34_93
*1434 FILLER_35_105
*1435 FILLER_35_11
*1436 FILLER_35_111
*1437 FILLER_35_113
*1438 FILLER_35_117
*1439 FILLER_35_122
*1440 FILLER_35_130
*1441 FILLER_35_142
*1442 FILLER_35_154
*1443 FILLER_35_163
*1444 FILLER_35_167
*1445 FILLER_35_169
*1446 FILLER_35_17
*1447 FILLER_35_189
*1448 FILLER_35_201
*1449 FILLER_35_213
*1450 FILLER_35_221
*1451 FILLER_35_225
*1452 FILLER_35_237
*1453 FILLER_35_249
*1454 FILLER_35_261
*1455 FILLER_35_27
*1456 FILLER_35_273
*1457 FILLER_35_279
*1458 FILLER_35_281
*1459 FILLER_35_293
*1460 FILLER_35_3
*1461 FILLER_35_48
*1462 FILLER_35_57
*1463 FILLER_35_63
*1464 FILLER_35_67
*1465 FILLER_35_76
*1466 FILLER_35_88
*1467 FILLER_35_98
*1468 FILLER_36_103
*1469 FILLER_36_115
*1470 FILLER_36_123
*1471 FILLER_36_131
*1472 FILLER_36_139
*1473 FILLER_36_141
*1474 FILLER_36_149
*1475 FILLER_36_157
*1476 FILLER_36_16
*1477 FILLER_36_165
*1478 FILLER_36_177
*1479 FILLER_36_188
*1480 FILLER_36_197
*1481 FILLER_36_209
*1482 FILLER_36_221
*1483 FILLER_36_23
*1484 FILLER_36_233
*1485 FILLER_36_245
*1486 FILLER_36_251
*1487 FILLER_36_253
*1488 FILLER_36_265
*1489 FILLER_36_27
*1490 FILLER_36_277
*1491 FILLER_36_289
*1492 FILLER_36_29
*1493 FILLER_36_297
*1494 FILLER_36_3
*1495 FILLER_36_47
*1496 FILLER_36_56
*1497 FILLER_36_68
*1498 FILLER_36_75
*1499 FILLER_36_8
*1500 FILLER_36_82
*1501 FILLER_36_85
*1502 FILLER_36_91
*1503 FILLER_37_10
*1504 FILLER_37_102
*1505 FILLER_37_110
*1506 FILLER_37_113
*1507 FILLER_37_121
*1508 FILLER_37_133
*1509 FILLER_37_141
*1510 FILLER_37_148
*1511 FILLER_37_160
*1512 FILLER_37_169
*1513 FILLER_37_181
*1514 FILLER_37_193
*1515 FILLER_37_205
*1516 FILLER_37_217
*1517 FILLER_37_223
*1518 FILLER_37_225
*1519 FILLER_37_237
*1520 FILLER_37_249
*1521 FILLER_37_25
*1522 FILLER_37_261
*1523 FILLER_37_273
*1524 FILLER_37_279
*1525 FILLER_37_281
*1526 FILLER_37_293
*1527 FILLER_37_3
*1528 FILLER_37_34
*1529 FILLER_37_45
*1530 FILLER_37_53
*1531 FILLER_37_57
*1532 FILLER_37_68
*1533 FILLER_37_76
*1534 FILLER_37_82
*1535 FILLER_37_92
*1536 FILLER_38_108
*1537 FILLER_38_120
*1538 FILLER_38_133
*1539 FILLER_38_139
*1540 FILLER_38_141
*1541 FILLER_38_146
*1542 FILLER_38_158
*1543 FILLER_38_166
*1544 FILLER_38_171
*1545 FILLER_38_178
*1546 FILLER_38_190
*1547 FILLER_38_197
*1548 FILLER_38_20
*1549 FILLER_38_209
*1550 FILLER_38_221
*1551 FILLER_38_233
*1552 FILLER_38_245
*1553 FILLER_38_251
*1554 FILLER_38_253
*1555 FILLER_38_265
*1556 FILLER_38_277
*1557 FILLER_38_289
*1558 FILLER_38_29
*1559 FILLER_38_297
*1560 FILLER_38_3
*1561 FILLER_38_35
*1562 FILLER_38_39
*1563 FILLER_38_45
*1564 FILLER_38_49
*1565 FILLER_38_55
*1566 FILLER_38_59
*1567 FILLER_38_76
*1568 FILLER_38_85
*1569 FILLER_38_9
*1570 FILLER_38_97
*1571 FILLER_39_107
*1572 FILLER_39_11
*1573 FILLER_39_111
*1574 FILLER_39_113
*1575 FILLER_39_125
*1576 FILLER_39_137
*1577 FILLER_39_149
*1578 FILLER_39_161
*1579 FILLER_39_165
*1580 FILLER_39_169
*1581 FILLER_39_175
*1582 FILLER_39_187
*1583 FILLER_39_19
*1584 FILLER_39_199
*1585 FILLER_39_204
*1586 FILLER_39_216
*1587 FILLER_39_225
*1588 FILLER_39_237
*1589 FILLER_39_249
*1590 FILLER_39_26
*1591 FILLER_39_261
*1592 FILLER_39_273
*1593 FILLER_39_279
*1594 FILLER_39_281
*1595 FILLER_39_293
*1596 FILLER_39_3
*1597 FILLER_39_32
*1598 FILLER_39_36