*SPEF "ieee 1481-1999"
*DESIGN "psychogenic_neptuneprop"
*DATE "11:11:11 Fri 11 11, 1111"
*VENDOR "OpenRCX"
*PROGRAM "Parallel Extraction"
*VERSION "1.0"
*DESIGN_FLOW "NAME_SCOPE LOCAL" "PIN_CAP NONE"
*DIVIDER /
*DELIMITER :
*BUS_DELIMITER []
*T_UNIT 1 NS
*C_UNIT 1 PF
*R_UNIT 1 OHM
*L_UNIT 1 HENRY

*NAME_MAP
*1 io_in[0]
*2 io_in[1]
*3 io_in[2]
*4 io_in[3]
*5 io_in[4]
*6 io_in[5]
*7 io_in[6]
*8 io_in[7]
*9 io_out[0]
*10 io_out[1]
*11 io_out[2]
*12 io_out[3]
*13 io_out[4]
*14 io_out[5]
*15 io_out[6]
*16 io_out[7]
*19 _0000_
*20 _0001_
*21 _0002_
*22 _0003_
*23 _0004_
*24 _0005_
*25 _0006_
*26 _0007_
*27 _0008_
*28 _0009_
*29 _0010_
*30 _0011_
*31 _0012_
*32 _0013_
*33 _0014_
*34 _0015_
*35 _0016_
*36 _0017_
*37 _0018_
*38 _0019_
*39 _0020_
*40 _0021_
*41 _0022_
*42 _0023_
*43 _0024_
*44 _0025_
*45 _0026_
*46 _0027_
*47 _0028_
*48 _0029_
*49 _0030_
*50 _0031_
*51 _0032_
*52 _0033_
*53 _0034_
*54 _0035_
*55 _0036_
*56 _0037_
*57 _0038_
*58 _0039_
*59 _0040_
*60 _0041_
*61 _0042_
*62 _0043_
*63 _0044_
*64 _0045_
*65 _0046_
*66 _0047_
*67 _0048_
*68 _0049_
*69 _0050_
*70 _0051_
*71 _0052_
*72 _0053_
*73 _0054_
*74 _0055_
*75 _0056_
*76 _0057_
*77 _0058_
*78 _0059_
*79 _0060_
*80 _0061_
*81 _0062_
*82 _0063_
*83 _0064_
*84 _0065_
*85 _0066_
*86 _0067_
*87 _0068_
*88 _0069_
*89 _0070_
*90 _0071_
*91 _0072_
*92 _0073_
*93 _0074_
*94 _0075_
*95 _0076_
*96 _0077_
*97 _0078_
*98 _0079_
*99 _0080_
*100 _0081_
*101 _0082_
*102 _0083_
*103 _0084_
*104 _0085_
*105 _0086_
*106 _0087_
*107 _0088_
*108 _0089_
*109 _0090_
*110 _0091_
*111 _0092_
*112 _0093_
*113 _0094_
*114 _0095_
*115 _0096_
*116 _0097_
*117 _0098_
*118 _0099_
*119 _0100_
*120 _0101_
*121 _0102_
*122 _0103_
*123 _0104_
*124 _0105_
*125 _0106_
*126 _0107_
*127 _0108_
*128 _0109_
*129 _0110_
*130 _0111_
*131 _0112_
*132 _0113_
*133 _0114_
*134 _0115_
*135 _0116_
*136 _0117_
*137 _0118_
*138 _0119_
*139 _0120_
*140 _0121_
*141 _0122_
*142 _0123_
*143 _0124_
*144 _0125_
*145 _0126_
*146 _0127_
*147 _0128_
*148 _0129_
*149 _0130_
*150 _0131_
*151 _0132_
*152 _0133_
*153 _0134_
*154 _0135_
*155 _0136_
*156 _0137_
*157 _0138_
*158 _0139_
*159 _0140_
*160 _0141_
*161 _0142_
*162 _0143_
*163 _0144_
*164 _0145_
*165 _0146_
*166 _0147_
*167 _0148_
*168 _0149_
*169 _0150_
*170 _0151_
*171 _0152_
*172 _0153_
*173 _0154_
*174 _0155_
*175 _0156_
*176 _0157_
*177 _0158_
*178 _0159_
*179 _0160_
*180 _0161_
*181 _0162_
*182 _0163_
*183 _0164_
*184 _0165_
*185 _0166_
*186 _0167_
*187 _0168_
*188 _0169_
*189 _0170_
*190 _0171_
*191 _0172_
*192 _0173_
*193 _0174_
*194 _0175_
*195 _0176_
*196 _0177_
*197 _0178_
*198 _0179_
*199 _0180_
*200 _0181_
*201 _0182_
*202 _0183_
*203 _0184_
*204 _0185_
*205 _0186_
*206 _0187_
*207 _0188_
*208 _0189_
*209 _0190_
*210 _0191_
*211 _0192_
*212 _0193_
*213 _0194_
*214 _0195_
*215 _0196_
*216 _0197_
*217 _0198_
*218 _0199_
*219 _0200_
*220 _0201_
*221 _0202_
*222 _0203_
*223 _0204_
*224 _0205_
*225 _0206_
*226 _0207_
*227 _0208_
*228 _0209_
*229 _0210_
*230 _0211_
*231 _0212_
*232 _0213_
*233 _0214_
*234 _0215_
*235 _0216_
*236 _0217_
*237 _0218_
*238 _0219_
*239 _0220_
*240 _0221_
*241 _0222_
*242 _0223_
*243 _0224_
*244 _0225_
*245 _0226_
*246 _0227_
*247 _0228_
*248 _0229_
*249 _0230_
*250 _0231_
*251 _0232_
*252 _0233_
*253 _0234_
*254 _0235_
*255 _0236_
*256 _0237_
*257 _0238_
*258 _0239_
*259 _0240_
*260 _0241_
*261 _0242_
*262 _0243_
*263 _0244_
*264 _0245_
*265 _0246_
*266 _0247_
*267 _0248_
*268 _0249_
*269 _0250_
*270 _0251_
*271 _0252_
*272 _0253_
*273 _0254_
*274 _0255_
*275 _0256_
*276 _0257_
*277 _0258_
*278 _0259_
*279 _0260_
*280 _0261_
*281 _0262_
*282 _0263_
*283 _0264_
*284 _0265_
*285 _0266_
*286 _0267_
*287 _0268_
*288 _0269_
*289 _0270_
*290 _0271_
*291 _0272_
*292 _0273_
*293 _0274_
*294 _0275_
*295 _0276_
*296 _0277_
*297 _0278_
*298 _0279_
*299 _0280_
*300 _0281_
*301 _0282_
*302 _0283_
*303 _0284_
*304 _0285_
*305 _0286_
*306 _0287_
*307 _0288_
*308 _0289_
*309 _0290_
*310 _0291_
*311 _0292_
*312 _0293_
*313 _0294_
*314 _0295_
*315 _0296_
*316 _0297_
*317 _0298_
*318 _0299_
*319 _0300_
*320 _0301_
*321 _0302_
*322 _0303_
*323 _0304_
*324 _0305_
*325 _0306_
*326 _0307_
*327 _0308_
*328 _0309_
*329 _0310_
*330 _0311_
*331 _0312_
*332 _0313_
*333 _0314_
*334 _0315_
*335 _0316_
*336 _0317_
*337 _0318_
*338 _0319_
*339 _0320_
*340 _0321_
*341 _0322_
*342 _0323_
*343 _0324_
*344 _0325_
*345 _0326_
*346 _0327_
*347 _0328_
*348 _0329_
*349 _0330_
*350 _0331_
*351 _0332_
*352 _0333_
*353 _0334_
*354 _0335_
*355 _0336_
*356 _0337_
*357 _0338_
*358 _0339_
*359 _0340_
*360 _0341_
*361 _0342_
*362 _0343_
*363 _0344_
*364 _0345_
*365 _0346_
*366 _0347_
*367 _0348_
*368 _0349_
*369 _0350_
*370 _0351_
*371 _0352_
*372 _0353_
*373 _0354_
*374 _0355_
*375 _0356_
*376 _0357_
*377 _0358_
*378 _0359_
*379 _0360_
*380 _0361_
*381 _0362_
*382 _0363_
*383 _0364_
*384 _0365_
*385 _0366_
*386 _0367_
*387 _0368_
*388 _0369_
*389 _0370_
*390 _0371_
*391 _0372_
*392 _0373_
*393 _0374_
*394 _0375_
*395 _0376_
*396 _0377_
*397 _0378_
*398 _0379_
*399 _0380_
*400 _0381_
*401 _0382_
*402 _0383_
*403 _0384_
*404 _0385_
*405 _0386_
*406 _0387_
*407 _0388_
*408 _0389_
*409 _0390_
*410 _0391_
*411 _0392_
*412 _0393_
*413 _0394_
*414 _0395_
*415 _0396_
*416 _0397_
*417 _0398_
*418 _0399_
*419 _0400_
*420 _0401_
*421 _0402_
*422 _0403_
*423 _0404_
*424 _0405_
*425 _0406_
*426 _0407_
*427 _0408_
*428 _0409_
*429 _0410_
*430 _0411_
*431 _0412_
*432 _0413_
*433 _0414_
*434 _0415_
*435 _0416_
*436 _0417_
*437 _0418_
*438 _0419_
*439 _0420_
*440 _0421_
*441 _0422_
*442 _0423_
*443 _0424_
*444 _0425_
*445 _0426_
*446 _0427_
*447 _0428_
*448 _0429_
*449 _0430_
*450 _0431_
*451 _0432_
*452 _0433_
*453 _0434_
*454 _0435_
*455 _0436_
*456 _0437_
*457 _0438_
*458 _0439_
*459 _0440_
*460 _0441_
*461 _0442_
*462 _0443_
*463 _0444_
*464 _0445_
*465 _0446_
*466 _0447_
*467 _0448_
*468 _0449_
*469 _0450_
*470 _0451_
*471 _0452_
*472 _0453_
*473 _0454_
*474 _0455_
*475 _0456_
*476 _0457_
*477 _0458_
*478 _0459_
*479 _0460_
*480 _0461_
*481 _0462_
*482 _0463_
*483 _0464_
*484 _0465_
*485 _0466_
*486 _0467_
*487 _0468_
*488 _0469_
*489 _0470_
*490 clknet_0_io_in[0]
*491 clknet_3_0__leaf_io_in[0]
*492 clknet_3_1__leaf_io_in[0]
*493 clknet_3_2__leaf_io_in[0]
*494 clknet_3_3__leaf_io_in[0]
*495 clknet_3_4__leaf_io_in[0]
*496 clknet_3_5__leaf_io_in[0]
*497 clknet_3_6__leaf_io_in[0]
*498 clknet_3_7__leaf_io_in[0]
*499 net1
*500 net2
*501 net3
*502 net4
*503 net5
*504 tuner\.discriminator\.curNoteIndex\[0\]
*505 tuner\.discriminator\.curNoteIndex\[1\]
*506 tuner\.discriminator\.curNoteIndex\[2\]
*507 tuner\.discriminator\.curState\[0\]
*508 tuner\.discriminator\.curState\[1\]
*509 tuner\.discriminator\.curState\[2\]
*510 tuner\.discriminator\.detectionWindow\[0\]
*511 tuner\.discriminator\.detectionWindow\[1\]
*512 tuner\.discriminator\.detectionWindow\[2\]
*513 tuner\.discriminator\.detectionWindow\[3\]
*514 tuner\.discriminator\.detectionWindow\[4\]
*515 tuner\.discriminator\.inputFreqHigher
*516 tuner\.discriminator\.match_exact
*517 tuner\.discriminator\.match_far
*518 tuner\.discriminator\.match_high
*519 tuner\.discriminator\.noMatchCount\[0\]
*520 tuner\.discriminator\.noMatchCount\[1\]
*521 tuner\.discriminator\.noMatchCount\[2\]
*522 tuner\.discriminator\.noMatchCount\[3\]
*523 tuner\.discriminator\.noMatchCount\[4\]
*524 tuner\.discriminator\.note\[0\]
*525 tuner\.discriminator\.note\[1\]
*526 tuner\.discriminator\.note\[2\]
*527 tuner\.discriminator\.readingProximityResult\[0\]
*528 tuner\.discriminator\.readingProximityResult\[1\]
*529 tuner\.discriminator\.readingProximityResult\[2\]
*530 tuner\.discriminator\.readingProximityResult\[3\]
*531 tuner\.discriminator\.readingProximityResult\[4\]
*532 tuner\.discriminator\.readingProximityResult\[5\]
*533 tuner\.discriminator\.subtractResult\[0\]
*534 tuner\.discriminator\.subtractResult\[1\]
*535 tuner\.discriminator\.subtractResult\[2\]
*536 tuner\.discriminator\.subtractResult\[3\]
*537 tuner\.discriminator\.subtractResult\[4\]
*538 tuner\.discriminator\.subtractResult\[5\]
*539 tuner\.discriminator\.subtractResult\[6\]
*540 tuner\.discriminator\.subtractResult\[7\]
*541 tuner\.discriminator\.subtractResult\[8\]
*542 tuner\.display\.notedisplay\.segments\[1\]
*543 tuner\.display\.notedisplay\.segments\[2\]
*544 tuner\.display\.notedisplay\.segments\[3\]
*545 tuner\.display\.notedisplay\.segments\[4\]
*546 tuner\.display\.notedisplay\.segments\[5\]
*547 tuner\.display\.notedisplay\.segments\[6\]
*548 tuner\.display\.notedisplay\.segments\[7\]
*549 tuner\.display\.notedisplay_value\[0\]
*550 tuner\.display\.notedisplay_value\[1\]
*551 tuner\.display\.notedisplay_value\[2\]
*552 tuner\.display\.proxdisplay\.segments\[1\]
*553 tuner\.display\.proxdisplay\.segments\[2\]
*554 tuner\.display\.proxdisplay\.segments\[3\]
*555 tuner\.display\.proxdisplay\.segments\[4\]
*556 tuner\.display\.proxdisplay\.segments\[7\]
*557 tuner\.display\.proxdisplay_value\[0\]
*558 tuner\.display\.proxdisplay_value\[1\]
*559 tuner\.display\.proxdisplay_value\[2\]
*560 tuner\.display\.proximitySelect
*561 tuner\.pulsecounter\.clockCount\[0\]
*562 tuner\.pulsecounter\.clockCount\[10\]
*563 tuner\.pulsecounter\.clockCount\[1\]
*564 tuner\.pulsecounter\.clockCount\[2\]
*565 tuner\.pulsecounter\.clockCount\[3\]
*566 tuner\.pulsecounter\.clockCount\[4\]
*567 tuner\.pulsecounter\.clockCount\[5\]
*568 tuner\.pulsecounter\.clockCount\[6\]
*569 tuner\.pulsecounter\.clockCount\[7\]
*570 tuner\.pulsecounter\.clockCount\[8\]
*571 tuner\.pulsecounter\.clockCount\[9\]
*572 tuner\.pulsecounter\.edge_detect\.ffsync\.stage0
*573 tuner\.pulsecounter\.edge_detect\.ffsync\.stage1
*574 tuner\.pulsecounter\.edge_detect\.output
*575 tuner\.pulsecounter\.edge_detect\.seenRising
*576 tuner\.pulsecounter\.pulseCount\[0\]
*577 tuner\.pulsecounter\.pulseCount\[1\]
*578 tuner\.pulsecounter\.pulseCount\[2\]
*579 tuner\.pulsecounter\.pulseCount\[3\]
*580 tuner\.pulsecounter\.pulseCount\[4\]
*581 tuner\.pulsecounter\.pulseCount\[5\]
*582 tuner\.pulsecounter\.pulseCount\[6\]
*583 tuner\.pulsecounter\.pulseCount\[7\]
*584 tuner\.pulsecounter\.runningPulseCount\[0\]
*585 tuner\.pulsecounter\.runningPulseCount\[1\]
*586 tuner\.pulsecounter\.runningPulseCount\[2\]
*587 tuner\.pulsecounter\.runningPulseCount\[3\]
*588 tuner\.pulsecounter\.runningPulseCount\[4\]
*589 tuner\.pulsecounter\.runningPulseCount\[5\]
*590 tuner\.pulsecounter\.runningPulseCount\[6\]
*591 tuner\.pulsecounter\.runningPulseCount\[7\]
*592 tuner\.pulsecounter\.singlePeriodClockCount\[0\]
*593 tuner\.pulsecounter\.singlePeriodClockCount\[10\]
*594 tuner\.pulsecounter\.singlePeriodClockCount\[2\]
*595 tuner\.pulsecounter\.singlePeriodClockCount\[3\]
*596 tuner\.pulsecounter\.singlePeriodClockCount\[4\]
*597 tuner\.pulsecounter\.singlePeriodClockCount\[5\]
*598 tuner\.pulsecounter\.singlePeriodClockCount\[6\]
*599 tuner\.pulsecounter\.singlePeriodClockCount\[7\]
*600 tuner\.pulsecounter\.singlePeriodClockCount\[9\]
*601 ANTENNA_1
*602 ANTENNA_2
*603 ANTENNA_3
*604 ANTENNA_4
*605 ANTENNA_5
*606 ANTENNA_6
*607 ANTENNA_7
*608 ANTENNA_8
*609 ANTENNA_9
*610 FILLER_0_103
*611 FILLER_0_110
*612 FILLER_0_113
*613 FILLER_0_131
*614 FILLER_0_138
*615 FILLER_0_141
*616 FILLER_0_148
*617 FILLER_0_157
*618 FILLER_0_164
*619 FILLER_0_169
*620 FILLER_0_174
*621 FILLER_0_181
*622 FILLER_0_193
*623 FILLER_0_197
*624 FILLER_0_209
*625 FILLER_0_221
*626 FILLER_0_225
*627 FILLER_0_237
*628 FILLER_0_249
*629 FILLER_0_25
*630 FILLER_0_253
*631 FILLER_0_265
*632 FILLER_0_277
*633 FILLER_0_281
*634 FILLER_0_29
*635 FILLER_0_293
*636 FILLER_0_3
*637 FILLER_0_37
*638 FILLER_0_54
*639 FILLER_0_57
*640 FILLER_0_78
*641 FILLER_0_82
*642 FILLER_0_85
*643 FILLER_10_103
*644 FILLER_10_112
*645 FILLER_10_124
*646 FILLER_10_138
*647 FILLER_10_141
*648 FILLER_10_151
*649 FILLER_10_158
*650 FILLER_10_168
*651 FILLER_10_180
*652 FILLER_10_188
*653 FILLER_10_197
*654 FILLER_10_206
*655 FILLER_10_21
*656 FILLER_10_210
*657 FILLER_10_220
*658 FILLER_10_231
*659 FILLER_10_239
*660 FILLER_10_250
*661 FILLER_10_253
*662 FILLER_10_263
*663 FILLER_10_27
*664 FILLER_10_275
*665 FILLER_10_287
*666 FILLER_10_29
*667 FILLER_10_3
*668 FILLER_10_41
*669 FILLER_10_45
*670 FILLER_10_63
*671 FILLER_10_75
*672 FILLER_10_82
*673 FILLER_10_85
*674 FILLER_11_105
*675 FILLER_11_111
*676 FILLER_11_113
*677 FILLER_11_124
*678 FILLER_11_131
*679 FILLER_11_140
*680 FILLER_11_144
*681 FILLER_11_148
*682 FILLER_11_15
*683 FILLER_11_156
*684 FILLER_11_166
*685 FILLER_11_169
*686 FILLER_11_177
*687 FILLER_11_187
*688 FILLER_11_199
*689 FILLER_11_203
*690 FILLER_11_211
*691 FILLER_11_218
*692 FILLER_11_225
*693 FILLER_11_232
*694 FILLER_11_238
*695 FILLER_11_249
*696 FILLER_11_261
*697 FILLER_11_265
*698 FILLER_11_272
*699 FILLER_11_281
*700 FILLER_11_293
*701 FILLER_11_3
*702 FILLER_11_36
*703 FILLER_11_48
*704 FILLER_11_57
*705 FILLER_11_69
*706 FILLER_11_9
*707 FILLER_11_93
*708 FILLER_12_103
*709 FILLER_12_115
*710 FILLER_12_124
*711 FILLER_12_133
*712 FILLER_12_139
*713 FILLER_12_141
*714 FILLER_12_146
*715 FILLER_12_150
*716 FILLER_12_154
*717 FILLER_12_164
*718 FILLER_12_168
*719 FILLER_12_176
*720 FILLER_12_183
*721 FILLER_12_190
*722 FILLER_12_197
*723 FILLER_12_203
*724 FILLER_12_209
*725 FILLER_12_21
*726 FILLER_12_219
*727 FILLER_12_231
*728 FILLER_12_239
*729 FILLER_12_243
*730 FILLER_12_251
*731 FILLER_12_253
*732 FILLER_12_265
*733 FILLER_12_27
*734 FILLER_12_277
*735 FILLER_12_289
*736 FILLER_12_29
*737 FILLER_12_297
*738 FILLER_12_3
*739 FILLER_12_48
*740 FILLER_12_60
*741 FILLER_12_78
*742 FILLER_12_85
*743 FILLER_13_103
*744 FILLER_13_110
*745 FILLER_13_113
*746 FILLER_13_120
*747 FILLER_13_127
*748 FILLER_13_134
*749 FILLER_13_148
*750 FILLER_13_156
*751 FILLER_13_165
*752 FILLER_13_169
*753 FILLER_13_173
*754 FILLER_13_181
*755 FILLER_13_193
*756 FILLER_13_201
*757 FILLER_13_205
*758 FILLER_13_210
*759 FILLER_13_22
*760 FILLER_13_221
*761 FILLER_13_225
*762 FILLER_13_237
*763 FILLER_13_249
*764 FILLER_13_261
*765 FILLER_13_273
*766 FILLER_13_279
*767 FILLER_13_281
*768 FILLER_13_293
*769 FILLER_13_3
*770 FILLER_13_34
*771 FILLER_13_53
*772 FILLER_13_57
*773 FILLER_13_65
*774 FILLER_13_70
*775 FILLER_13_90
*776 FILLER_14_106
*777 FILLER_14_113
*778 FILLER_14_119
*779 FILLER_14_128
*780 FILLER_14_137
*781 FILLER_14_141
*782 FILLER_14_149
*783 FILLER_14_157
*784 FILLER_14_164
*785 FILLER_14_172
*786 FILLER_14_178
*787 FILLER_14_182
*788 FILLER_14_186
*789 FILLER_14_193
*790 FILLER_14_197
*791 FILLER_14_207
*792 FILLER_14_215
*793 FILLER_14_227
*794 FILLER_14_238
*795 FILLER_14_247
*796 FILLER_14_251
*797 FILLER_14_253
*798 FILLER_14_26
*799 FILLER_14_260
*800 FILLER_14_272
*801 FILLER_14_284
*802 FILLER_14_29
*803 FILLER_14_296
*804 FILLER_14_3
*805 FILLER_14_47
*806 FILLER_14_55
*807 FILLER_14_73
*808 FILLER_14_82
*809 FILLER_14_85
*810 FILLER_14_89
*811 FILLER_14_93
*812 FILLER_15_109
*813 FILLER_15_113
*814 FILLER_15_118
*815 FILLER_15_125
*816 FILLER_15_14
*817 FILLER_15_140
*818 FILLER_15_147
*819 FILLER_15_159
*820 FILLER_15_166
*821 FILLER_15_169
*822 FILLER_15_17
*823 FILLER_15_179
*824 FILLER_15_192
*825 FILLER_15_200
*826 FILLER_15_208
*827 FILLER_15_217
*828 FILLER_15_223
*829 FILLER_15_225
*830 FILLER_15_232
*831 FILLER_15_239
*832 FILLER_15_251
*833 FILLER_15_259
*834 FILLER_15_271
*835 FILLER_15_279
*836 FILLER_15_281
*837 FILLER_15_293
*838 FILLER_15_3
*839 FILLER_15_36
*840 FILLER_15_48
*841 FILLER_15_57
*842 FILLER_15_75
*843 FILLER_15_8
*844 FILLER_15_82
*845 FILLER_15_86
*846 FILLER_15_92
*847 FILLER_16_103
*848 FILLER_16_112
*849 FILLER_16_129
*850 FILLER_16_133
*851 FILLER_16_138
*852 FILLER_16_141
*853 FILLER_16_152
*854 FILLER_16_162
*855 FILLER_16_166
*856 FILLER_16_170
*857 FILLER_16_182
*858 FILLER_16_191
*859 FILLER_16_195
*860 FILLER_16_197
*861 FILLER_16_205
*862 FILLER_16_213
*863 FILLER_16_22
*864 FILLER_16_222
*865 FILLER_16_229
*866 FILLER_16_240
*867 FILLER_16_247
*868 FILLER_16_251
*869 FILLER_16_253
*870 FILLER_16_265
*871 FILLER_16_277
*872 FILLER_16_289
*873 FILLER_16_29
*874 FILLER_16_297
*875 FILLER_16_3
*876 FILLER_16_41
*877 FILLER_16_58
*878 FILLER_16_78
*879 FILLER_16_85
*880 FILLER_17_106
*881 FILLER_17_113
*882 FILLER_17_121
*883 FILLER_17_129
*884 FILLER_17_137
*885 FILLER_17_144
*886 FILLER_17_152
*887 FILLER_17_163
*888 FILLER_17_167
*889 FILLER_17_169
*890 FILLER_17_181
*891 FILLER_17_189
*892 FILLER_17_195
*893 FILLER_17_203
*894 FILLER_17_207
*895 FILLER_17_214
*896 FILLER_17_22
*897 FILLER_17_221
*898 FILLER_17_225
*899 FILLER_17_230
*900 FILLER_17_236
*901 FILLER_17_245
*902 FILLER_17_252
*903 FILLER_17_264
*904 FILLER_17_276
*905 FILLER_17_281
*906 FILLER_17_293
*907 FILLER_17_3
*908 FILLER_17_42
*909 FILLER_17_54
*910 FILLER_17_57
*911 FILLER_17_75
*912 FILLER_17_95
*913 FILLER_18_103
*914 FILLER_18_116
*915 FILLER_18_124
*916 FILLER_18_132
*917 FILLER_18_141
*918 FILLER_18_153
*919 FILLER_18_161
*920 FILLER_18_165
*921 FILLER_18_169
*922 FILLER_18_184
*923 FILLER_18_192
*924 FILLER_18_197
*925 FILLER_18_206
*926 FILLER_18_213
*927 FILLER_18_234
*928 FILLER_18_241
*929 FILLER_18_248
*930 FILLER_18_253
*931 FILLER_18_26
*932 FILLER_18_265
*933 FILLER_18_277
*934 FILLER_18_289
*935 FILLER_18_29
*936 FILLER_18_297
*937 FILLER_18_3
*938 FILLER_18_37
*939 FILLER_18_56
*940 FILLER_18_64
*941 FILLER_18_82
*942 FILLER_18_85
*943 FILLER_18_9
*944 FILLER_19_100
*945 FILLER_19_110
*946 FILLER_19_113
*947 FILLER_19_120
*948 FILLER_19_129
*949 FILLER_19_136
*950 FILLER_19_140
*951 FILLER_19_148
*952 FILLER_19_15
*953 FILLER_19_156
*954 FILLER_19_164
*955 FILLER_19_169
*956 FILLER_19_179
*957 FILLER_19_188
*958 FILLER_19_192
*959 FILLER_19_202
*960 FILLER_19_208
*961 FILLER_19_214
*962 FILLER_19_218
*963 FILLER_19_222
*964 FILLER_19_225
*965 FILLER_19_23
*966 FILLER_19_235
*967 FILLER_19_243
*968 FILLER_19_248
*969 FILLER_19_260
*970 FILLER_19_272
*971 FILLER_19_281
*972 FILLER_19_293
*973 FILLER_19_3
*974 FILLER_19_41
*975 FILLER_19_53
*976 FILLER_19_57
*977 FILLER_19_79
*978 FILLER_1_109
*979 FILLER_1_113
*980 FILLER_1_131
*981 FILLER_1_145
*982 FILLER_1_149
*983 FILLER_1_154
*984 FILLER_1_161
*985 FILLER_1_167
*986 FILLER_1_169
*987 FILLER_1_176
*988 FILLER_1_180
*989 FILLER_1_186
*990 FILLER_1_198
*991 FILLER_1_204
*992 FILLER_1_213
*993 FILLER_1_221
*994 FILLER_1_225
*995 FILLER_1_231
*996 FILLER_1_24
*997 FILLER_1_243
*998 FILLER_1_255
*999 FILLER_1_267
*1000 FILLER_1_279
*1001 FILLER_1_281
*1002 FILLER_1_293
*1003 FILLER_1_3
*1004 FILLER_1_34
*1005 FILLER_1_52
*1006 FILLER_1_57
*1007 FILLER_1_64
*1008 FILLER_1_68
*1009 FILLER_1_87
*1010 FILLER_1_91
*1011 FILLER_20_111
*1012 FILLER_20_119
*1013 FILLER_20_129
*1014 FILLER_20_138
*1015 FILLER_20_141
*1016 FILLER_20_155
*1017 FILLER_20_167
*1018 FILLER_20_175
*1019 FILLER_20_184
*1020 FILLER_20_197
*1021 FILLER_20_204
*1022 FILLER_20_21
*1023 FILLER_20_216
*1024 FILLER_20_226
*1025 FILLER_20_235
*1026 FILLER_20_244
*1027 FILLER_20_253
*1028 FILLER_20_258
*1029 FILLER_20_27
*1030 FILLER_20_270
*1031 FILLER_20_282
*1032 FILLER_20_29
*1033 FILLER_20_294
*1034 FILLER_20_298
*1035 FILLER_20_3
*1036 FILLER_20_41
*1037 FILLER_20_45
*1038 FILLER_20_63
*1039 FILLER_20_75
*1040 FILLER_20_82
*1041 FILLER_20_85
*1042 FILLER_20_90
*1043 FILLER_21_101
*1044 FILLER_21_110
*1045 FILLER_21_113
*1046 FILLER_21_125
*1047 FILLER_21_137
*1048 FILLER_21_147
*1049 FILLER_21_15
*1050 FILLER_21_159
*1051 FILLER_21_167
*1052 FILLER_21_169
*1053 FILLER_21_175
*1054 FILLER_21_182
*1055 FILLER_21_190
*1056 FILLER_21_202
*1057 FILLER_21_208
*1058 FILLER_21_215
*1059 FILLER_21_222
*1060 FILLER_21_225
*1061 FILLER_21_235
*1062 FILLER_21_246
*1063 FILLER_21_258
*1064 FILLER_21_270
*1065 FILLER_21_278
*1066 FILLER_21_281
*1067 FILLER_21_293
*1068 FILLER_21_3
*1069 FILLER_21_36
*1070 FILLER_21_48
*1071 FILLER_21_57
*1072 FILLER_21_67
*1073 FILLER_21_93
*1074 FILLER_22_103
*1075 FILLER_22_110
*1076 FILLER_22_114
*1077 FILLER_22_121
*1078 FILLER_22_133
*1079 FILLER_22_139
*1080 FILLER_22_141
*1081 FILLER_22_150
*1082 FILLER_22_162
*1083 FILLER_22_175
*1084 FILLER_22_187
*1085 FILLER_22_195
*1086 FILLER_22_197
*1087 FILLER_22_207
*1088 FILLER_22_219
*1089 FILLER_22_231
*1090 FILLER_22_240
*1091 FILLER_22_253
*1092 FILLER_22_26
*1093 FILLER_22_265
*1094 FILLER_22_277
*1095 FILLER_22_289
*1096 FILLER_22_29
*1097 FILLER_22_297
*1098 FILLER_22_3
*1099 FILLER_22_50
*1100 FILLER_22_78
*1101 FILLER_22_85
*1102 FILLER_22_9
*1103 FILLER_23_106
*1104 FILLER_23_113
*1105 FILLER_23_120
*1106 FILLER_23_130
*1107 FILLER_23_137
*1108 FILLER_23_145
*1109 FILLER_23_154
*1110 FILLER_23_166
*1111 FILLER_23_169
*1112 FILLER_23_177
*1113 FILLER_23_181
*1114 FILLER_23_187
*1115 FILLER_23_198
*1116 FILLER_23_205
*1117 FILLER_23_218
*1118 FILLER_23_225
*1119 FILLER_23_230
*1120 FILLER_23_238
*1121 FILLER_23_244
*1122 FILLER_23_256
*1123 FILLER_23_268
*1124 FILLER_23_27
*1125 FILLER_23_281
*1126 FILLER_23_293
*1127 FILLER_23_3
*1128 FILLER_23_47
*1129 FILLER_23_55
*1130 FILLER_23_57
*1131 FILLER_23_69
*1132 FILLER_23_75
*1133 FILLER_23_92
*1134 FILLER_24_104
*1135 FILLER_24_114
*1136 FILLER_24_118
*1137 FILLER_24_124
*1138 FILLER_24_130
*1139 FILLER_24_136
*1140 FILLER_24_141
*1141 FILLER_24_150
*1142 FILLER_24_154
*1143 FILLER_24_159
*1144 FILLER_24_171
*1145 FILLER_24_186
*1146 FILLER_24_194
*1147 FILLER_24_197
*1148 FILLER_24_204
*1149 FILLER_24_212
*1150 FILLER_24_221
*1151 FILLER_24_232
*1152 FILLER_24_245
*1153 FILLER_24_251
*1154 FILLER_24_253
*1155 FILLER_24_26
*1156 FILLER_24_265
*1157 FILLER_24_277
*1158 FILLER_24_289
*1159 FILLER_24_29
*1160 FILLER_24_297
*1161 FILLER_24_3
*1162 FILLER_24_34
*1163 FILLER_24_38
*1164 FILLER_24_55
*1165 FILLER_24_75
*1166 FILLER_24_83
*1167 FILLER_24_85
*1168 FILLER_24_9
*1169 FILLER_25_102
*1170 FILLER_25_110
*1171 FILLER_25_113
*1172 FILLER_25_117
*1173 FILLER_25_121
*1174 FILLER_25_134
*1175 FILLER_25_140
*1176 FILLER_25_144
*1177 FILLER_25_15
*1178 FILLER_25_155
*1179 FILLER_25_167
*1180 FILLER_25_169
*1181 FILLER_25_177
*1182 FILLER_25_189
*1183 FILLER_25_195
*1184 FILLER_25_205
*1185 FILLER_25_213
*1186 FILLER_25_218
*1187 FILLER_25_225
*1188 FILLER_25_237
*1189 FILLER_25_249
*1190 FILLER_25_261
*1191 FILLER_25_273
*1192 FILLER_25_279
*1193 FILLER_25_281
*1194 FILLER_25_293
*1195 FILLER_25_3
*1196 FILLER_25_40
*1197 FILLER_25_47
*1198 FILLER_25_55
*1199 FILLER_25_57
*1200 FILLER_25_69
*1201 FILLER_25_89
*1202 FILLER_26_105
*1203 FILLER_26_121
*1204 FILLER_26_129
*1205 FILLER_26_138
*1206 FILLER_26_141
*1207 FILLER_26_154
*1208 FILLER_26_166
*1209 FILLER_26_176
*1210 FILLER_26_186
*1211 FILLER_26_194
*1212 FILLER_26_197
*1213 FILLER_26_203
*1214 FILLER_26_211
*1215 FILLER_26_22
*1216 FILLER_26_220
*1217 FILLER_26_228
*1218 FILLER_26_234
*1219 FILLER_26_246
*1220 FILLER_26_253
*1221 FILLER_26_26
*1222 FILLER_26_271
*1223 FILLER_26_283
*1224 FILLER_26_29
*1225 FILLER_26_295
*1226 FILLER_26_3
*1227 FILLER_26_41
*1228 FILLER_26_61
*1229 FILLER_26_65
*1230 FILLER_26_82
*1231 FILLER_26_85
*1232 FILLER_26_97
*1233 FILLER_27_106
*1234 FILLER_27_113
*1235 FILLER_27_121
*1236 FILLER_27_130
*1237 FILLER_27_142
*1238 FILLER_27_15
*1239 FILLER_27_157
*1240 FILLER_27_165
*1241 FILLER_27_169
*1242 FILLER_27_177
*1243 FILLER_27_193
*1244 FILLER_27_202
*1245 FILLER_27_217
*1246 FILLER_27_223
*1247 FILLER_27_225
*1248 FILLER_27_232
*1249 FILLER_27_244
*1250 FILLER_27_253
*1251 FILLER_27_265
*1252 FILLER_27_277
*1253 FILLER_27_281
*1254 FILLER_27_293
*1255 FILLER_27_3
*1256 FILLER_27_36
*1257 FILLER_27_48
*1258 FILLER_27_57
*1259 FILLER_27_69
*1260 FILLER_27_93
*1261 FILLER_28_105
*1262 FILLER_28_116
*1263 FILLER_28_124
*1264 FILLER_28_132
*1265 FILLER_28_141
*1266 FILLER_28_149
*1267 FILLER_28_161
*1268 FILLER_28_173
*1269 FILLER_28_185
*1270 FILLER_28_193
*1271 FILLER_28_197
*1272 FILLER_28_202
*1273 FILLER_28_210
*1274 FILLER_28_215
*1275 FILLER_28_22
*1276 FILLER_28_225
*1277 FILLER_28_237
*1278 FILLER_28_249
*1279 FILLER_28_253
*1280 FILLER_28_262
*1281 FILLER_28_274
*1282 FILLER_28_286
*1283 FILLER_28_29
*1284 FILLER_28_298
*1285 FILLER_28_3
*1286 FILLER_28_37
*1287 FILLER_28_58
*1288 FILLER_28_78
*1289 FILLER_28_85
*1290 FILLER_28_95
*1291 FILLER_28_99
*1292 FILLER_29_101
*1293 FILLER_29_109
*1294 FILLER_29_113
*1295 FILLER_29_119
*1296 FILLER_29_129
*1297 FILLER_29_137
*1298 FILLER_29_14
*1299 FILLER_29_148
*1300 FILLER_29_160
*1301 FILLER_29_169
*1302 FILLER_29_179
*1303 FILLER_29_191
*1304 FILLER_29_199
*1305 FILLER_29_208
*1306 FILLER_29_220
*1307 FILLER_29_225
*1308 FILLER_29_237
*1309 FILLER_29_249
*1310 FILLER_29_261
*1311 FILLER_29_273
*1312 FILLER_29_279
*1313 FILLER_29_281
*1314 FILLER_29_293
*1315 FILLER_29_3
*1316 FILLER_29_35
*1317 FILLER_29_43
*1318 FILLER_29_50
*1319 FILLER_29_57
*1320 FILLER_29_65
*1321 FILLER_29_70
*1322 FILLER_29_89
*1323 FILLER_2_103
*1324 FILLER_2_123
*1325 FILLER_2_132
*1326 FILLER_2_141
*1327 FILLER_2_148
*1328 FILLER_2_157
*1329 FILLER_2_165
*1330 FILLER_2_172
*1331 FILLER_2_181
*1332 FILLER_2_188
*1333 FILLER_2_197
*1334 FILLER_2_204
*1335 FILLER_2_216
*1336 FILLER_2_228
*1337 FILLER_2_240
*1338 FILLER_2_244
*1339 FILLER_2_249
*1340 FILLER_2_253
*1341 FILLER_2_26
*1342 FILLER_2_265
*1343 FILLER_2_277
*1344 FILLER_2_289
*1345 FILLER_2_29
*1346 FILLER_2_297
*1347 FILLER_2_3
*1348 FILLER_2_48
*1349 FILLER_2_59
*1350 FILLER_2_63
*1351 FILLER_2_81
*1352 FILLER_2_85
*1353 FILLER_2_9
*1354 FILLER_30_107
*1355 FILLER_30_119
*1356 FILLER_30_123
*1357 FILLER_30_130
*1358 FILLER_30_138
*1359 FILLER_30_141
*1360 FILLER_30_150
*1361 FILLER_30_159
*1362 FILLER_30_171
*1363 FILLER_30_183
*1364 FILLER_30_194
*1365 FILLER_30_197
*1366 FILLER_30_205
*1367 FILLER_30_218
*1368 FILLER_30_22
*1369 FILLER_30_226
*1370 FILLER_30_233
*1371 FILLER_30_245
*1372 FILLER_30_251
*1373 FILLER_30_253
*1374 FILLER_30_265
*1375 FILLER_30_277
*1376 FILLER_30_289
*1377 FILLER_30_29
*1378 FILLER_30_297
*1379 FILLER_30_3
*1380 FILLER_30_34
*1381 FILLER_30_46
*1382 FILLER_30_64
*1383 FILLER_30_70
*1384 FILLER_30_80
*1385 FILLER_30_85
*1386 FILLER_30_91
*1387 FILLER_30_97
*1388 FILLER_31_108
*1389 FILLER_31_113
*1390 FILLER_31_125
*1391 FILLER_31_136
*1392 FILLER_31_148
*1393 FILLER_31_15
*1394 FILLER_31_160
*1395 FILLER_31_169
*1396 FILLER_31_181
*1397 FILLER_31_19
*1398 FILLER_31_193
*1399 FILLER_31_205
*1400 FILLER_31_216
*1401 FILLER_31_225
*1402 FILLER_31_239
*1403 FILLER_31_251
*1404 FILLER_31_263
*1405 FILLER_31_275
*1406 FILLER_31_279
*1407 FILLER_31_28
*1408 FILLER_31_281
*1409 FILLER_31_293
*1410 FILLER_31_3
*1411 FILLER_31_35
*1412 FILLER_31_47
*1413 FILLER_31_55
*1414 FILLER_31_57
*1415 FILLER_31_63
*1416 FILLER_31_80
*1417 FILLER_31_89
*1418 FILLER_31_96
*1419 FILLER_32_103
*1420 FILLER_32_115
*1421 FILLER_32_123
*1422 FILLER_32_132
*1423 FILLER_32_141
*1424 FILLER_32_146
*1425 FILLER_32_158
*1426 FILLER_32_170
*1427 FILLER_32_182
*1428 FILLER_32_194
*1429 FILLER_32_197
*1430 FILLER_32_209
*1431 FILLER_32_22
*1432 FILLER_32_222
*1433 FILLER_32_234
*1434 FILLER_32_246
*1435 FILLER_32_253
*1436 FILLER_32_265
*1437 FILLER_32_277
*1438 FILLER_32_289
*1439 FILLER_32_29
*1440 FILLER_32_297
*1441 FILLER_32_3
*1442 FILLER_32_48
*1443 FILLER_32_56
*1444 FILLER_32_66
*1445 FILLER_32_78
*1446 FILLER_32_85
*1447 FILLER_33_100
*1448 FILLER_33_109
*1449 FILLER_33_11
*1450 FILLER_33_113
*1451 FILLER_33_121
*1452 FILLER_33_129
*1453 FILLER_33_136
*1454 FILLER_33_147
*1455 FILLER_33_159
*1456 FILLER_33_167
*1457 FILLER_33_169
*1458 FILLER_33_18
*1459 FILLER_33_181
*1460 FILLER_33_193
*1461 FILLER_33_205
*1462 FILLER_33_217
*1463 FILLER_33_223
*1464 FILLER_33_225
*1465 FILLER_33_235
*1466 FILLER_33_247
*1467 FILLER_33_259
*1468 FILLER_33_271
*1469 FILLER_33_279
*1470 FILLER_33_281
*1471 FILLER_33_293
*1472 FILLER_33_3
*1473 FILLER_33_38
*1474 FILLER_33_46
*1475 FILLER_33_54
*1476 FILLER_33_57
*1477 FILLER_33_81
*1478 FILLER_33_89
*1479 FILLER_34_102
*1480 FILLER_34_113
*1481 FILLER_34_117
*1482 FILLER_34_124
*1483 FILLER_34_132
*1484 FILLER_34_136
*1485 FILLER_34_141
*1486 FILLER_34_15
*1487 FILLER_34_153
*1488 FILLER_34_165
*1489 FILLER_34_177
*1490 FILLER_34_189
*1491 FILLER_34_195
*1492 FILLER_34_197
*1493 FILLER_34_209
*1494 FILLER_34_217
*1495 FILLER_34_22
*1496 FILLER_34_228
*1497 FILLER_34_240
*1498 FILLER_34_253
*1499 FILLER_34_265
*1500 FILLER_34_277
*1501 FILLER_34_289
*1502 FILLER_34_29
*1503 FILLER_34_297
*1504 FILLER_34_3
*1505 FILLER_34_34
*1506 FILLER_34_38
*1507 FILLER_34_42
*1508 FILLER_34_51
*1509 FILLER_34_58
*1510 FILLER_34_69
*1511 FILLER_34_77
*1512 FILLER_34_82
*1513 FILLER_34_85
*1514 FILLER_34_90
*1515 FILLER_35_106
*1516 FILLER_35_113
*1517 FILLER_35_124
*1518 FILLER_35_136
*1519 FILLER_35_14
*1520 FILLER_35_148
*1521 FILLER_35_156
*1522 FILLER_35_162
*1523 FILLER_35_169
*1524 FILLER_35_181
*1525 FILLER_35_193
*1526 FILLER_35_205
*1527 FILLER_35_217
*1528 FILLER_35_223
*1529 FILLER_35_225
*1530 FILLER_35_23
*1531 FILLER_35_237
*1532 FILLER_35_249
*1533 FILLER_35_261
*1534 FILLER_35_273
*1535 FILLER_35_279
*1536 FILLER_35_281
*1537 FILLER_35_293
*1538 FILLER_35_3
*1539 FILLER_35_35
*1540 FILLER_35_44
*1541 FILLER_35_50
*1542 FILLER_35_54
*1543 FILLER_35_57
*1544 FILLER_35_67
*1545 FILLER_35_79
*1546 FILLER_35_87
*1547 FILLER_35_94
*1548 FILLER_36_10
*1549 FILLER_36_105
*1550 FILLER_36_113
*1551 FILLER_36_119
*1552 FILLER_36_129
*1553 FILLER_36_136
*1554 FILLER_36_141
*1555 FILLER_36_147
*1556 FILLER_36_159
*1557 FILLER_36_171
*1558 FILLER_36_18
*1559 FILLER_36_183
*1560 FILLER_36_195
*1561 FILLER_36_197
*1562 FILLER_36_209
*1563 FILLER_36_221
*1564 FILLER_36_233
*1565 FILLER_36_245
*1566 FILLER_36_251
*1567 FILLER_36_253
*1568 FILLER_36_26
*1569 FILLER_36_265
*1570 FILLER_36_277
*1571 FILLER_36_289
*1572 FILLER_36_29
*1573 FILLER_36_297
*1574 FILLER_36_3
*1575 FILLER_36_35
*1576 FILLER_36_52
*1577 FILLER_36_63
*1578 FILLER_36_69
*1579 FILLER_36_76
*1580 FILLER_36_85
*1581 FILLER_36_89
*1582 FILLER_36_93
*1583 FILLER_37_110
*1584 FILLER_37_113
*1585 FILLER_37_124
*1586 FILLER_37_136
*1587 FILLER_37_143
*1588 FILLER_37_155
*1589 FILLER_37_167
*1590 FILLER_37_169
*1591 FILLER_37_181
*1592 FILLER_37_193
*1593 FILLER_37_205
*1594 FILLER_37_21
*1595 FILLER_37_217
*1596 FILLER_37_223