*SPEF "ieee 1481-1999"
*DESIGN "pwm"
*DATE "11:11:11 Fri 11 11, 1111"
*VENDOR "OpenRCX"
*PROGRAM "Parallel Extraction"
*VERSION "1.0"
*DESIGN_FLOW "NAME_SCOPE LOCAL" "PIN_CAP NONE"
*DIVIDER /
*DELIMITER :
*BUS_DELIMITER []
*T_UNIT 1 NS
*C_UNIT 1 PF
*R_UNIT 1 OHM
*L_UNIT 1 HENRY

*NAME_MAP
*1 io_in[0]
*2 io_in[1]
*3 io_in[2]
*4 io_in[3]
*5 io_in[4]
*6 io_in[5]
*7 io_in[6]
*8 io_in[7]
*9 io_out[0]
*10 io_out[1]
*11 io_out[2]
*12 io_out[3]
*13 net3
*14 net4
*15 net5
*16 net6
*19 _000_
*20 _001_
*21 _002_
*22 _003_
*23 _004_
*24 _005_
*25 _006_
*26 _007_
*27 _008_
*28 _009_
*29 _010_
*30 _011_
*31 _012_
*32 _013_
*33 _014_
*34 _015_
*35 _016_
*36 _017_
*37 _018_
*38 _019_
*39 _034_
*40 _035_
*41 _036_
*42 _037_
*43 _038_
*44 _039_
*45 _040_
*46 _041_
*47 _042_
*48 _043_
*49 _044_
*50 _045_
*51 _046_
*52 _047_
*53 _048_
*54 _049_
*55 _050_
*56 _051_
*57 _052_
*58 _053_
*59 _054_
*60 _055_
*61 _056_
*62 _057_
*63 _058_
*64 _059_
*65 _060_
*66 _061_
*67 _062_
*68 _063_
*69 _064_
*70 _065_
*71 _066_
*72 _067_
*73 _068_
*74 _069_
*75 _070_
*76 _071_
*77 _072_
*78 _073_
*79 _074_
*80 _075_
*81 _076_
*82 _077_
*83 _078_
*84 _079_
*85 _080_
*86 _081_
*87 _082_
*88 _083_
*89 _084_
*90 _085_
*91 _086_
*92 _087_
*93 _088_
*94 _089_
*95 _090_
*96 _091_
*97 _092_
*98 _093_
*99 _094_
*100 _095_
*101 _096_
*102 _097_
*103 _098_
*104 _099_
*105 _100_
*106 _101_
*107 _102_
*108 _103_
*109 _104_
*110 _105_
*111 _106_
*112 _107_
*113 _108_
*114 _109_
*115 _110_
*116 _111_
*117 _112_
*118 _113_
*119 _114_
*120 _115_
*121 _116_
*122 _117_
*123 _118_
*124 _119_
*125 _120_
*126 _121_
*127 _122_
*128 _123_
*129 _124_
*130 _125_
*131 _126_
*132 _127_
*133 _128_
*134 _129_
*135 _130_
*136 _131_
*137 _132_
*138 _133_
*139 _134_
*140 _135_
*141 _136_
*142 _137_
*143 _138_
*144 _139_
*145 _140_
*146 _141_
*147 _142_
*148 _143_
*149 _144_
*150 _145_
*151 _146_
*152 _147_
*153 _148_
*154 _149_
*155 _150_
*156 _151_
*157 _152_
*158 _153_
*159 _154_
*160 _155_
*161 _156_
*162 _157_
*163 _158_
*164 _159_
*165 _160_
*166 _161_
*167 _162_
*168 _163_
*169 _164_
*170 _165_
*171 _166_
*172 _167_
*173 _168_
*174 _169_
*175 _170_
*176 _171_
*177 _172_
*178 _173_
*179 _174_
*180 _175_
*181 _176_
*182 _177_
*183 _178_
*184 _179_
*185 _180_
*186 _181_
*187 _182_
*188 _183_
*189 _184_
*190 _185_
*191 _186_
*192 _187_
*193 _188_
*194 _189_
*195 _190_
*196 _191_
*197 _192_
*198 _193_
*199 _194_
*200 _195_
*201 _196_
*202 _197_
*203 _198_
*204 _199_
*205 _200_
*206 _201_
*207 _202_
*208 _203_
*209 _204_
*210 _205_
*211 _206_
*212 _207_
*213 _208_
*214 _209_
*215 _210_
*216 _211_
*217 _212_
*218 _213_
*219 _214_
*220 _215_
*221 _216_
*222 _217_
*223 _218_
*224 _219_
*225 _220_
*226 _221_
*227 _222_
*228 _223_
*229 _224_
*230 _225_
*231 _226_
*232 _227_
*233 _228_
*234 _229_
*235 _230_
*236 bdcount\[0\]
*237 bdcount\[10\]
*238 bdcount\[11\]
*239 bdcount\[1\]
*240 bdcount\[2\]
*241 bdcount\[3\]
*242 bdcount\[4\]
*243 bdcount\[5\]
*244 bdcount\[6\]
*245 bdcount\[7\]
*246 bdcount\[8\]
*247 bdcount\[9\]
*248 bucount\[0\]
*249 bucount\[10\]
*250 bucount\[11\]
*251 bucount\[1\]
*252 bucount\[2\]
*253 bucount\[3\]
*254 bucount\[4\]
*255 bucount\[5\]
*256 bucount\[6\]
*257 bucount\[7\]
*258 bucount\[8\]
*259 bucount\[9\]
*260 clknet_0_io_in[0]
*261 clknet_3_0__leaf_io_in[0]
*262 clknet_3_1__leaf_io_in[0]
*263 clknet_3_2__leaf_io_in[0]
*264 clknet_3_3__leaf_io_in[0]
*265 clknet_3_4__leaf_io_in[0]
*266 clknet_3_5__leaf_io_in[0]
*267 clknet_3_6__leaf_io_in[0]
*268 clknet_3_7__leaf_io_in[0]
*269 clock_1hz
*270 count\[0\]
*271 count\[1\]
*272 count\[2\]
*273 count\[3\]
*274 count\[4\]
*275 count\[5\]
*276 count\[6\]
*277 count\[7\]
*278 counter\[0\]
*279 counter\[10\]
*280 counter\[11\]
*281 counter\[12\]
*282 counter\[13\]
*283 counter\[14\]
*284 counter\[15\]
*285 counter\[16\]
*286 counter\[17\]
*287 counter\[18\]
*288 counter\[19\]
*289 counter\[1\]
*290 counter\[20\]
*291 counter\[21\]
*292 counter\[22\]
*293 counter\[23\]
*294 counter\[24\]
*295 counter\[25\]
*296 counter\[26\]
*297 counter\[27\]
*298 counter\[2\]
*299 counter\[3\]
*300 counter\[4\]
*301 counter\[5\]
*302 counter\[6\]
*303 counter\[7\]
*304 counter\[8\]
*305 counter\[9\]
*306 debounced_btn_decrPWM
*307 debounced_btn_incrPWM
*308 deled
*309 duty_cycle\[0\]
*310 duty_cycle\[1\]
*311 duty_cycle\[2\]
*312 duty_cycle\[3\]
*313 duty_cycle\[4\]
*314 duty_cycle\[5\]
*315 duty_cycle\[6\]
*316 duty_cycle\[7\]
*317 inled
*318 led
*319 net1
*320 net10
*321 net11
*322 net12
*323 net13
*324 net14
*325 net15
*326 net16
*327 net17
*328 net18
*329 net19
*330 net2
*331 net20
*332 net7
*333 net8
*334 net9
*335 ANTENNA_1
*336 FILLER_0_103
*337 FILLER_0_110
*338 FILLER_0_113
*339 FILLER_0_131
*340 FILLER_0_138
*341 FILLER_0_141
*342 FILLER_0_148
*343 FILLER_0_155
*344 FILLER_0_167
*345 FILLER_0_169
*346 FILLER_0_181
*347 FILLER_0_193
*348 FILLER_0_197
*349 FILLER_0_209
*350 FILLER_0_22
*351 FILLER_0_221
*352 FILLER_0_225
*353 FILLER_0_237
*354 FILLER_0_249
*355 FILLER_0_253
*356 FILLER_0_265
*357 FILLER_0_277
*358 FILLER_0_281
*359 FILLER_0_29
*360 FILLER_0_293
*361 FILLER_0_3
*362 FILLER_0_48
*363 FILLER_0_57
*364 FILLER_0_65
*365 FILLER_0_82
*366 FILLER_0_85
*367 FILLER_10_103
*368 FILLER_10_123
*369 FILLER_10_131
*370 FILLER_10_139
*371 FILLER_10_141
*372 FILLER_10_153
*373 FILLER_10_165
*374 FILLER_10_177
*375 FILLER_10_189
*376 FILLER_10_195
*377 FILLER_10_197
*378 FILLER_10_209
*379 FILLER_10_22
*380 FILLER_10_221
*381 FILLER_10_233
*382 FILLER_10_245
*383 FILLER_10_251
*384 FILLER_10_253
*385 FILLER_10_265
*386 FILLER_10_277
*387 FILLER_10_289
*388 FILLER_10_29
*389 FILLER_10_297
*390 FILLER_10_3
*391 FILLER_10_34
*392 FILLER_10_46
*393 FILLER_10_67
*394 FILLER_10_74
*395 FILLER_10_82
*396 FILLER_10_85
*397 FILLER_11_103
*398 FILLER_11_110
*399 FILLER_11_113
*400 FILLER_11_121
*401 FILLER_11_128
*402 FILLER_11_140
*403 FILLER_11_15
*404 FILLER_11_152
*405 FILLER_11_164
*406 FILLER_11_169
*407 FILLER_11_181
*408 FILLER_11_193
*409 FILLER_11_205
*410 FILLER_11_217
*411 FILLER_11_223
*412 FILLER_11_225
*413 FILLER_11_237
*414 FILLER_11_249
*415 FILLER_11_261
*416 FILLER_11_273
*417 FILLER_11_279
*418 FILLER_11_281
*419 FILLER_11_293
*420 FILLER_11_3
*421 FILLER_11_36
*422 FILLER_11_48
*423 FILLER_11_57
*424 FILLER_11_75
*425 FILLER_11_95
*426 FILLER_12_103
*427 FILLER_12_107
*428 FILLER_12_112
*429 FILLER_12_119
*430 FILLER_12_127
*431 FILLER_12_136
*432 FILLER_12_141
*433 FILLER_12_153
*434 FILLER_12_165
*435 FILLER_12_177
*436 FILLER_12_189
*437 FILLER_12_195
*438 FILLER_12_197
*439 FILLER_12_209
*440 FILLER_12_221
*441 FILLER_12_233
*442 FILLER_12_245
*443 FILLER_12_251
*444 FILLER_12_253
*445 FILLER_12_26
*446 FILLER_12_265
*447 FILLER_12_277
*448 FILLER_12_289
*449 FILLER_12_29
*450 FILLER_12_297
*451 FILLER_12_3
*452 FILLER_12_36
*453 FILLER_12_44
*454 FILLER_12_65
*455 FILLER_12_77
*456 FILLER_12_82
*457 FILLER_12_85
*458 FILLER_12_9
*459 FILLER_13_103
*460 FILLER_13_110
*461 FILLER_13_113
*462 FILLER_13_119
*463 FILLER_13_13
*464 FILLER_13_131
*465 FILLER_13_143
*466 FILLER_13_155
*467 FILLER_13_167
*468 FILLER_13_169
*469 FILLER_13_17
*470 FILLER_13_181
*471 FILLER_13_193
*472 FILLER_13_205
*473 FILLER_13_217
*474 FILLER_13_223
*475 FILLER_13_225
*476 FILLER_13_237
*477 FILLER_13_249
*478 FILLER_13_261
*479 FILLER_13_273
*480 FILLER_13_279
*481 FILLER_13_281
*482 FILLER_13_293
*483 FILLER_13_3
*484 FILLER_13_34
*485 FILLER_13_54
*486 FILLER_13_57
*487 FILLER_13_75
*488 FILLER_13_9
*489 FILLER_13_95
*490 FILLER_14_103
*491 FILLER_14_112
*492 FILLER_14_119
*493 FILLER_14_131
*494 FILLER_14_139
*495 FILLER_14_141
*496 FILLER_14_153
*497 FILLER_14_165
*498 FILLER_14_177
*499 FILLER_14_189
*500 FILLER_14_195
*501 FILLER_14_197
*502 FILLER_14_209
*503 FILLER_14_221
*504 FILLER_14_233
*505 FILLER_14_245
*506 FILLER_14_251
*507 FILLER_14_253
*508 FILLER_14_26
*509 FILLER_14_265
*510 FILLER_14_277
*511 FILLER_14_289
*512 FILLER_14_29
*513 FILLER_14_297
*514 FILLER_14_3
*515 FILLER_14_41
*516 FILLER_14_45
*517 FILLER_14_62
*518 FILLER_14_82
*519 FILLER_14_85
*520 FILLER_14_9
*521 FILLER_15_101
*522 FILLER_15_105
*523 FILLER_15_110
*524 FILLER_15_113
*525 FILLER_15_119
*526 FILLER_15_125
*527 FILLER_15_137
*528 FILLER_15_141
*529 FILLER_15_148
*530 FILLER_15_160
*531 FILLER_15_169
*532 FILLER_15_181
*533 FILLER_15_193
*534 FILLER_15_205
*535 FILLER_15_217
*536 FILLER_15_223
*537 FILLER_15_225
*538 FILLER_15_237
*539 FILLER_15_249
*540 FILLER_15_261
*541 FILLER_15_27
*542 FILLER_15_273
*543 FILLER_15_279
*544 FILLER_15_281
*545 FILLER_15_293
*546 FILLER_15_3
*547 FILLER_15_48
*548 FILLER_15_57
*549 FILLER_15_65
*550 FILLER_15_82
*551 FILLER_15_88
*552 FILLER_15_92
*553 FILLER_16_100
*554 FILLER_16_109
*555 FILLER_16_117
*556 FILLER_16_130
*557 FILLER_16_138
*558 FILLER_16_141
*559 FILLER_16_153
*560 FILLER_16_165
*561 FILLER_16_177
*562 FILLER_16_189
*563 FILLER_16_195
*564 FILLER_16_197
*565 FILLER_16_209
*566 FILLER_16_21
*567 FILLER_16_221
*568 FILLER_16_233
*569 FILLER_16_245
*570 FILLER_16_251
*571 FILLER_16_253
*572 FILLER_16_265
*573 FILLER_16_27
*574 FILLER_16_277
*575 FILLER_16_289
*576 FILLER_16_29
*577 FILLER_16_297
*578 FILLER_16_3
*579 FILLER_16_34
*580 FILLER_16_42
*581 FILLER_16_65
*582 FILLER_16_77
*583 FILLER_16_82
*584 FILLER_16_85
*585 FILLER_17_108
*586 FILLER_17_113
*587 FILLER_17_126
*588 FILLER_17_133
*589 FILLER_17_145
*590 FILLER_17_157
*591 FILLER_17_165
*592 FILLER_17_169
*593 FILLER_17_186
*594 FILLER_17_198
*595 FILLER_17_210
*596 FILLER_17_222
*597 FILLER_17_225
*598 FILLER_17_237
*599 FILLER_17_249
*600 FILLER_17_25
*601 FILLER_17_261
*602 FILLER_17_273
*603 FILLER_17_279
*604 FILLER_17_281
*605 FILLER_17_293
*606 FILLER_17_3
*607 FILLER_17_49
*608 FILLER_17_55
*609 FILLER_17_57
*610 FILLER_17_69
*611 FILLER_17_87
*612 FILLER_17_99
*613 FILLER_18_109
*614 FILLER_18_117
*615 FILLER_18_129
*616 FILLER_18_137
*617 FILLER_18_141
*618 FILLER_18_153
*619 FILLER_18_165
*620 FILLER_18_177
*621 FILLER_18_189
*622 FILLER_18_195
*623 FILLER_18_197
*624 FILLER_18_209
*625 FILLER_18_221
*626 FILLER_18_233
*627 FILLER_18_245
*628 FILLER_18_251
*629 FILLER_18_253
*630 FILLER_18_26
*631 FILLER_18_265
*632 FILLER_18_277
*633 FILLER_18_289
*634 FILLER_18_29
*635 FILLER_18_297
*636 FILLER_18_3
*637 FILLER_18_40
*638 FILLER_18_48
*639 FILLER_18_66
*640 FILLER_18_78
*641 FILLER_18_85
*642 FILLER_18_9
*643 FILLER_18_97
*644 FILLER_19_110
*645 FILLER_19_113
*646 FILLER_19_124
*647 FILLER_19_139
*648 FILLER_19_149
*649 FILLER_19_161
*650 FILLER_19_167
*651 FILLER_19_169
*652 FILLER_19_181
*653 FILLER_19_193
*654 FILLER_19_205
*655 FILLER_19_21
*656 FILLER_19_217
*657 FILLER_19_223
*658 FILLER_19_225
*659 FILLER_19_237
*660 FILLER_19_249
*661 FILLER_19_261
*662 FILLER_19_273
*663 FILLER_19_279
*664 FILLER_19_28
*665 FILLER_19_281
*666 FILLER_19_293
*667 FILLER_19_3
*668 FILLER_19_36
*669 FILLER_19_54
*670 FILLER_19_57
*671 FILLER_19_75
*672 FILLER_19_95
*673 FILLER_1_101
*674 FILLER_1_110
*675 FILLER_1_113
*676 FILLER_1_131
*677 FILLER_1_140
*678 FILLER_1_148
*679 FILLER_1_15
*680 FILLER_1_160
*681 FILLER_1_169
*682 FILLER_1_181
*683 FILLER_1_193
*684 FILLER_1_205
*685 FILLER_1_217
*686 FILLER_1_223
*687 FILLER_1_225
*688 FILLER_1_237
*689 FILLER_1_249
*690 FILLER_1_261
*691 FILLER_1_273
*692 FILLER_1_279
*693 FILLER_1_281
*694 FILLER_1_293
*695 FILLER_1_3
*696 FILLER_1_36
*697 FILLER_1_48
*698 FILLER_1_54
*699 FILLER_1_57
*700 FILLER_1_69
*701 FILLER_1_93
*702 FILLER_20_103
*703 FILLER_20_110
*704 FILLER_20_122
*705 FILLER_20_134
*706 FILLER_20_141
*707 FILLER_20_153
*708 FILLER_20_165
*709 FILLER_20_177
*710 FILLER_20_189
*711 FILLER_20_195
*712 FILLER_20_197
*713 FILLER_20_209
*714 FILLER_20_21
*715 FILLER_20_221
*716 FILLER_20_233
*717 FILLER_20_245
*718 FILLER_20_251
*719 FILLER_20_253
*720 FILLER_20_265
*721 FILLER_20_27
*722 FILLER_20_277
*723 FILLER_20_289
*724 FILLER_20_29
*725 FILLER_20_297
*726 FILLER_20_3
*727 FILLER_20_34
*728 FILLER_20_62
*729 FILLER_20_82
*730 FILLER_20_85
*731 FILLER_21_103
*732 FILLER_21_111
*733 FILLER_21_113
*734 FILLER_21_125
*735 FILLER_21_137
*736 FILLER_21_149
*737 FILLER_21_161
*738 FILLER_21_167
*739 FILLER_21_169
*740 FILLER_21_181
*741 FILLER_21_193
*742 FILLER_21_205
*743 FILLER_21_217
*744 FILLER_21_223
*745 FILLER_21_225
*746 FILLER_21_237
*747 FILLER_21_24
*748 FILLER_21_249
*749 FILLER_21_261
*750 FILLER_21_273
*751 FILLER_21_279
*752 FILLER_21_281
*753 FILLER_21_293
*754 FILLER_21_3
*755 FILLER_21_44
*756 FILLER_21_57
*757 FILLER_21_62
*758 FILLER_21_71
*759 FILLER_21_91
*760 FILLER_22_10
*761 FILLER_22_100
*762 FILLER_22_111
*763 FILLER_22_122
*764 FILLER_22_130
*765 FILLER_22_138
*766 FILLER_22_141
*767 FILLER_22_153
*768 FILLER_22_165
*769 FILLER_22_17
*770 FILLER_22_177
*771 FILLER_22_189
*772 FILLER_22_195
*773 FILLER_22_197
*774 FILLER_22_209
*775 FILLER_22_221
*776 FILLER_22_233
*777 FILLER_22_245
*778 FILLER_22_25
*779 FILLER_22_251
*780 FILLER_22_253
*781 FILLER_22_265
*782 FILLER_22_277
*783 FILLER_22_289
*784 FILLER_22_29
*785 FILLER_22_297
*786 FILLER_22_3
*787 FILLER_22_47
*788 FILLER_22_53
*789 FILLER_22_70
*790 FILLER_22_82
*791 FILLER_22_85
*792 FILLER_22_93
*793 FILLER_23_109
*794 FILLER_23_113
*795 FILLER_23_123
*796 FILLER_23_135
*797 FILLER_23_147
*798 FILLER_23_15
*799 FILLER_23_159
*800 FILLER_23_167
*801 FILLER_23_169
*802 FILLER_23_181
*803 FILLER_23_193
*804 FILLER_23_205
*805 FILLER_23_217
*806 FILLER_23_223
*807 FILLER_23_225
*808 FILLER_23_23
*809 FILLER_23_237
*810 FILLER_23_249
*811 FILLER_23_261
*812 FILLER_23_273
*813 FILLER_23_279
*814 FILLER_23_281
*815 FILLER_23_29
*816 FILLER_23_293
*817 FILLER_23_3
*818 FILLER_23_41
*819 FILLER_23_53
*820 FILLER_23_57
*821 FILLER_23_69
*822 FILLER_23_81
*823 FILLER_23_93
*824 FILLER_24_102
*825 FILLER_24_110
*826 FILLER_24_117
*827 FILLER_24_129
*828 FILLER_24_137
*829 FILLER_24_141
*830 FILLER_24_15
*831 FILLER_24_153
*832 FILLER_24_165
*833 FILLER_24_177
*834 FILLER_24_189
*835 FILLER_24_195
*836 FILLER_24_197
*837 FILLER_24_209
*838 FILLER_24_221
*839 FILLER_24_233
*840 FILLER_24_245
*841 FILLER_24_251
*842 FILLER_24_253
*843 FILLER_24_265
*844 FILLER_24_27
*845 FILLER_24_277
*846 FILLER_24_289
*847 FILLER_24_29
*848 FILLER_24_297
*849 FILLER_24_3
*850 FILLER_24_41
*851 FILLER_24_52
*852 FILLER_24_64
*853 FILLER_24_76
*854 FILLER_24_85
*855 FILLER_24_93
*856 FILLER_25_102
*857 FILLER_25_110
*858 FILLER_25_113
*859 FILLER_25_118
*860 FILLER_25_129
*861 FILLER_25_141
*862 FILLER_25_15
*863 FILLER_25_153
*864 FILLER_25_165
*865 FILLER_25_169
*866 FILLER_25_181
*867 FILLER_25_193
*868 FILLER_25_205
*869 FILLER_25_217
*870 FILLER_25_223
*871 FILLER_25_225
*872 FILLER_25_237
*873 FILLER_25_249
*874 FILLER_25_261
*875 FILLER_25_27
*876 FILLER_25_273
*877 FILLER_25_279
*878 FILLER_25_281
*879 FILLER_25_293
*880 FILLER_25_3
*881 FILLER_25_39
*882 FILLER_25_51
*883 FILLER_25_55
*884 FILLER_25_57
*885 FILLER_25_69
*886 FILLER_25_81
*887 FILLER_25_89
*888 FILLER_25_95
*889 FILLER_26_105
*890 FILLER_26_116
*891 FILLER_26_127
*892 FILLER_26_138
*893 FILLER_26_141
*894 FILLER_26_149
*895 FILLER_26_15
*896 FILLER_26_161
*897 FILLER_26_173
*898 FILLER_26_185
*899 FILLER_26_193
*900 FILLER_26_197
*901 FILLER_26_209
*902 FILLER_26_221
*903 FILLER_26_233
*904 FILLER_26_245
*905 FILLER_26_251
*906 FILLER_26_253
*907 FILLER_26_265
*908 FILLER_26_27
*909 FILLER_26_277
*910 FILLER_26_289
*911 FILLER_26_29
*912 FILLER_26_297
*913 FILLER_26_3
*914 FILLER_26_41
*915 FILLER_26_53
*916 FILLER_26_59
*917 FILLER_26_63
*918 FILLER_26_79
*919 FILLER_26_83
*920 FILLER_26_85
*921 FILLER_26_94
*922 FILLER_27_101
*923 FILLER_27_107
*924 FILLER_27_111
*925 FILLER_27_113
*926 FILLER_27_124
*927 FILLER_27_128
*928 FILLER_27_132
*929 FILLER_27_139
*930 FILLER_27_15
*931 FILLER_27_151
*932 FILLER_27_155
*933 FILLER_27_167
*934 FILLER_27_169
*935 FILLER_27_181
*936 FILLER_27_193
*937 FILLER_27_205
*938 FILLER_27_217
*939 FILLER_27_223
*940 FILLER_27_225
*941 FILLER_27_237
*942 FILLER_27_249
*943 FILLER_27_261
*944 FILLER_27_27
*945 FILLER_27_273
*946 FILLER_27_279
*947 FILLER_27_281
*948 FILLER_27_293
*949 FILLER_27_3
*950 FILLER_27_39
*951 FILLER_27_51
*952 FILLER_27_55
*953 FILLER_27_57
*954 FILLER_27_69
*955 FILLER_27_84
*956 FILLER_27_88
*957 FILLER_27_93
*958 FILLER_28_104
*959 FILLER_28_116
*960 FILLER_28_125
*961 FILLER_28_133
*962 FILLER_28_139
*963 FILLER_28_141
*964 FILLER_28_149
*965 FILLER_28_15
*966 FILLER_28_155
*967 FILLER_28_162
*968 FILLER_28_174
*969 FILLER_28_186
*970 FILLER_28_194
*971 FILLER_28_197
*972 FILLER_28_209
*973 FILLER_28_221
*974 FILLER_28_233
*975 FILLER_28_245
*976 FILLER_28_251
*977 FILLER_28_253
*978 FILLER_28_265
*979 FILLER_28_27
*980 FILLER_28_277
*981 FILLER_28_289
*982 FILLER_28_29
*983 FILLER_28_297
*984 FILLER_28_3
*985 FILLER_28_41
*986 FILLER_28_53
*987 FILLER_28_65
*988 FILLER_28_77
*989 FILLER_28_83
*990 FILLER_28_85
*991 FILLER_28_92
*992 FILLER_29_101
*993 FILLER_29_109
*994 FILLER_29_113
*995 FILLER_29_124
*996 FILLER_29_128
*997 FILLER_29_136
*998 FILLER_29_147
*999 FILLER_29_15
*1000 FILLER_29_159
*1001 FILLER_29_167
*1002 FILLER_29_169
*1003 FILLER_29_181
*1004 FILLER_29_193
*1005 FILLER_29_205
*1006 FILLER_29_217
*1007 FILLER_29_223
*1008 FILLER_29_225
*1009 FILLER_29_237
*1010 FILLER_29_249
*1011 FILLER_29_261
*1012 FILLER_29_27
*1013 FILLER_29_273
*1014 FILLER_29_279
*1015 FILLER_29_281
*1016 FILLER_29_293
*1017 FILLER_29_3
*1018 FILLER_29_39
*1019 FILLER_29_51
*1020 FILLER_29_55
*1021 FILLER_29_57
*1022 FILLER_29_69
*1023 FILLER_29_81
*1024 FILLER_29_93
*1025 FILLER_2_103
*1026 FILLER_2_123
*1027 FILLER_2_134
*1028 FILLER_2_141
*1029 FILLER_2_147
*1030 FILLER_2_159
*1031 FILLER_2_171
*1032 FILLER_2_183
*1033 FILLER_2_195
*1034 FILLER_2_197
*1035 FILLER_2_209
*1036 FILLER_2_22
*1037 FILLER_2_221
*1038 FILLER_2_233
*1039 FILLER_2_245
*1040 FILLER_2_251
*1041 FILLER_2_253
*1042 FILLER_2_265
*1043 FILLER_2_277
*1044 FILLER_2_289
*1045 FILLER_2_29
*1046 FILLER_2_297
*1047 FILLER_2_3
*1048 FILLER_2_37
*1049 FILLER_2_57
*1050 FILLER_2_81
*1051 FILLER_2_85
*1052 FILLER_30_105
*1053 FILLER_30_117
*1054 FILLER_30_122
*1055 FILLER_30_134
*1056 FILLER_30_141
*1057 FILLER_30_164
*1058 FILLER_30_171
*1059 FILLER_30_183
*1060 FILLER_30_195
*1061 FILLER_30_197
*1062 FILLER_30_209
*1063 FILLER_30_21
*1064 FILLER_30_221
*1065 FILLER_30_233
*1066 FILLER_30_245
*1067 FILLER_30_251
*1068 FILLER_30_253
*1069 FILLER_30_265
*1070 FILLER_30_27
*1071 FILLER_30_277
*1072 FILLER_30_289
*1073 FILLER_30_29
*1074 FILLER_30_297
*1075 FILLER_30_3
*1076 FILLER_30_41
*1077 FILLER_30_53
*1078 FILLER_30_65
*1079 FILLER_30_82
*1080 FILLER_30_85
*1081 FILLER_30_9
*1082 FILLER_30_93
*1083 FILLER_31_102
*1084 FILLER_31_106
*1085 FILLER_31_110
*1086 FILLER_31_113
*1087 FILLER_31_124
*1088 FILLER_31_128
*1089 FILLER_31_135
*1090 FILLER_31_147
*1091 FILLER_31_15
*1092 FILLER_31_159
*1093 FILLER_31_167
*1094 FILLER_31_169
*1095 FILLER_31_181
*1096 FILLER_31_188
*1097 FILLER_31_200
*1098 FILLER_31_212
*1099 FILLER_31_225
*1100 FILLER_31_237
*1101 FILLER_31_249
*1102 FILLER_31_261
*1103 FILLER_31_27
*1104 FILLER_31_273
*1105 FILLER_31_279
*1106 FILLER_31_281
*1107 FILLER_31_293
*1108 FILLER_31_3
*1109 FILLER_31_39
*1110 FILLER_31_51
*1111 FILLER_31_55
*1112 FILLER_31_57
*1113 FILLER_31_63
*1114 FILLER_31_78
*1115 FILLER_31_90
*1116 FILLER_31_94
*1117 FILLER_32_101
*1118 FILLER_32_110
*1119 FILLER_32_119
*1120 FILLER_32_131
*1121 FILLER_32_139
*1122 FILLER_32_141
*1123 FILLER_32_15
*1124 FILLER_32_150
*1125 FILLER_32_162
*1126 FILLER_32_174
*1127 FILLER_32_182
*1128 FILLER_32_191
*1129 FILLER_32_195
*1130 FILLER_32_197
*1131 FILLER_32_209
*1132 FILLER_32_221
*1133 FILLER_32_233
*1134 FILLER_32_245
*1135 FILLER_32_251
*1136 FILLER_32_253
*1137 FILLER_32_265
*1138 FILLER_32_27
*1139 FILLER_32_277
*1140 FILLER_32_289
*1141 FILLER_32_29
*1142 FILLER_32_297
*1143 FILLER_32_3
*1144 FILLER_32_41
*1145 FILLER_32_49
*1146 FILLER_32_55
*1147 FILLER_32_63
*1148 FILLER_32_73
*1149 FILLER_32_77
*1150 FILLER_32_82
*1151 FILLER_32_85
*1152 FILLER_32_91
*1153 FILLER_33_100
*1154 FILLER_33_110
*1155 FILLER_33_113
*1156 FILLER_33_122
*1157 FILLER_33_135
*1158 FILLER_33_147
*1159 FILLER_33_15
*1160 FILLER_33_159
*1161 FILLER_33_167
*1162 FILLER_33_169
*1163 FILLER_33_177
*1164 FILLER_33_186
*1165 FILLER_33_195
*1166 FILLER_33_201
*1167 FILLER_33_207
*1168 FILLER_33_219
*1169 FILLER_33_223
*1170 FILLER_33_225
*1171 FILLER_33_237
*1172 FILLER_33_249
*1173 FILLER_33_261
*1174 FILLER_33_27
*1175 FILLER_33_273
*1176 FILLER_33_279
*1177 FILLER_33_281
*1178 FILLER_33_293
*1179 FILLER_33_3
*1180 FILLER_33_39
*1181 FILLER_33_51
*1182 FILLER_33_55
*1183 FILLER_33_57
*1184 FILLER_33_65
*1185 FILLER_33_69
*1186 FILLER_33_78
*1187 FILLER_33_88
*1188 FILLER_34_105
*1189 FILLER_34_116
*1190 FILLER_34_128
*1191 FILLER_34_141
*1192 FILLER_34_15
*1193 FILLER_34_153
*1194 FILLER_34_165
*1195 FILLER_34_173
*1196 FILLER_34_181
*1197 FILLER_34_191
*1198 FILLER_34_195
*1199 FILLER_34_197
*1200 FILLER_34_209
*1201 FILLER_34_221
*1202 FILLER_34_233
*1203 FILLER_34_245
*1204 FILLER_34_251
*1205 FILLER_34_253
*1206 FILLER_34_265
*1207 FILLER_34_27
*1208 FILLER_34_277
*1209 FILLER_34_289
*1210 FILLER_34_29
*1211 FILLER_34_297
*1212 FILLER_34_3
*1213 FILLER_34_41
*1214 FILLER_34_53
*1215 FILLER_34_61
*1216 FILLER_34_65
*1217 FILLER_34_73
*1218 FILLER_34_79
*1219 FILLER_34_83
*1220 FILLER_34_85
*1221 FILLER_34_95
*1222 FILLER_35_100
*1223 FILLER_35_113
*1224 FILLER_35_118
*1225 FILLER_35_130
*1226 FILLER_35_142
*1227 FILLER_35_15
*1228 FILLER_35_150
*1229 FILLER_35_158
*1230 FILLER_35_166
*1231 FILLER_35_169
*1232 FILLER_35_177
*1233 FILLER_35_185
*1234 FILLER_35_191
*1235 FILLER_35_198
*1236 FILLER_35_210
*1237 FILLER_35_222
*1238 FILLER_35_225
*1239 FILLER_35_237
*1240 FILLER_35_249
*1241 FILLER_35_261
*1242 FILLER_35_27
*1243 FILLER_35_273
*1244 FILLER_35_279
*1245 FILLER_35_281
*1246 FILLER_35_293
*1247 FILLER_35_3
*1248 FILLER_35_39
*1249 FILLER_35_51
*1250 FILLER_35_55
*1251 FILLER_35_57
*1252 FILLER_35_69
*1253 FILLER_35_77
*1254 FILLER_35_88
*1255 FILLER_36_110
*1256 FILLER_36_116
*1257 FILLER_36_12
*1258 FILLER_36_124
*1259 FILLER_36_131
*1260 FILLER_36_139
*1261 FILLER_36_141
*1262 FILLER_36_153
*1263 FILLER_36_160
*1264 FILLER_36_164
*1265 FILLER_36_170
*1266 FILLER_36_180
*1267 FILLER_36_192
*1268 FILLER_36_197
*1269 FILLER_36_204
*1270 FILLER_36_216
*1271 FILLER_36_228
*1272 FILLER_36_24
*1273 FILLER_36_240
*1274 FILLER_36_253
*1275 FILLER_36_265
*1276 FILLER_36_277
*1277 FILLER_36_289
*1278 FILLER_36_29
*1279 FILLER_36_297
*1280 FILLER_36_3
*1281 FILLER_36_41
*1282 FILLER_36_61
*1283 FILLER_36_7
*1284 FILLER_36_73
*1285 FILLER_36_81
*1286 FILLER_36_85
*1287 FILLER_36_97
*1288 FILLER_37_106
*1289 FILLER_37_113
*1290 FILLER_37_125
*1291 FILLER_37_134
*1292 FILLER_37_146
*1293 FILLER_37_15
*1294 FILLER_37_152
*1295 FILLER_37_161
*1296 FILLER_37_167
*1297 FILLER_37_169
*1298 FILLER_37_176
*1299 FILLER_37_185
*1300 FILLER_37_194
*1301 FILLER_37_203
*1302 FILLER_37_215
*1303 FILLER_37_223
*1304 FILLER_37_225
*1305 FILLER_37_237
*1306 FILLER_37_249
*1307 FILLER_37_261
*1308 FILLER_37_27
*1309 FILLER_37_273
*1310 FILLER_37_279
*1311 FILLER_37_281
*1312 FILLER_37_293
*1313 FILLER_37_3
*1314 FILLER_37_33
*1315 FILLER_37_38
*1316 FILLER_37_50
*1317 FILLER_37_57
*1318 FILLER_37_73
*1319 FILLER_37_85
*1320 FILLER_37_89
*1321 FILLER_37_97
*1322 FILLER_38_103
*1323 FILLER_38_107
*1324 FILLER_38_11
*1325 FILLER_38_113
*1326 FILLER_38_125
*1327 FILLER_38_137
*1328 FILLER_38_141
*1329 FILLER_38_147
*1330 FILLER_38_157
*1331 FILLER_38_165
*1332 FILLER_38_17
*1333 FILLER_38_173
*1334 FILLER_38_185
*1335 FILLER_38_193
*1336 FILLER_38_197
*1337 FILLER_38_209
*1338 FILLER_38_221
*1339 FILLER_38_233
*1340 FILLER_38_245
*1341 FILLER_38_25
*1342 FILLER_38_251
*1343 FILLER_38_253
*1344 FILLER_38_265
*1345 FILLER_38_277
*1346 FILLER_38_289
*1347 FILLER_38_29
*1348 FILLER_38_297
*1349 FILLER_38_3
*1350 FILLER_38_41
*1351 FILLER_38_53
*1352 FILLER_38_65
*1353 FILLER_38_73
*1354 FILLER_38_82
*1355 FILLER_38_85
*1356 FILLER_38_93
*1357 FILLER_39_105
*1358 FILLER_39_111
*1359 FILLER_39_113
*1360 FILLER_39_119
*1361 FILLER_39_128
*1362 FILLER_39_144
*1363 FILLER_39_148
*1364 FILLER_39_15
*1365 FILLER_39_156
*1366 FILLER_39_169
*1367 FILLER_39_181
*1368 FILLER_39_193
*1369 FILLER_39_199
*1370 FILLER_39_205
*1371 FILLER_39_217
*1372 FILLER_39_223
*1373 FILLER_39_225
*1374 FILLER_39_237
*1375 FILLER_39_249
*1376 FILLER_39_261
*1377 FILLER_39_27
*1378 FILLER_39_273
*1379 FILLER_39_279
*1380 FILLER_39_281
*1381 FILLER_39_293
*1382 FILLER_39_3
*1383 FILLER_39_39
*1384 FILLER_39_51
*1385 FILLER_39_55
*1386 FILLER_39_57
*1387 FILLER_39_69
*1388 FILLER_39_81
*1389 FILLER_39_93
*1390 FILLER_3_101
*1391 FILLER_3_110
*1392 FILLER_3_113
*1393 FILLER_3_131
*1394 FILLER_3_142
*1395 FILLER_3_149
*1396 FILLER_3_16
*1397 FILLER_3_161
*1398 FILLER_3_167
*1399 FILLER_3_169
*1400 FILLER_3_181
*1401 FILLER_3_193
*1402 FILLER_3_205
*1403 FILLER_3_217
*1404 FILLER_3_223
*1405 FILLER_3_225
*1406 FILLER_3_237
*1407 FILLER_3_249
*1408 FILLER_3_261
*1409 FILLER_3_273
*1410 FILLER_3_279
*1411 FILLER_3_281
*1412 FILLER_3_293
*1413 FILLER_3_3
*1414 FILLER_3_34
*1415 FILLER_3_54
*1416 FILLER_3_57
*1417 FILLER_3_73
*1418 FILLER_3_8
*1419 FILLER_3_93
*1420 FILLER_40_103
*1421 FILLER_40_107
*1422 FILLER_40_119
*1423 FILLER_40_131
*1424 FILLER_40_139
*1425 FILLER_40_141
*1426 FILLER_40_148
*1427 FILLER_40_15
*1428 FILLER_40_156
*1429 FILLER_40_160
*1430 FILLER_40_168
*1431 FILLER_40_177
*1432 FILLER_40_189
*1433 FILLER_40_195
*1434 FILLER_40_197
*1435 FILLER_40_209
*1436 FILLER_40_221
*1437 FILLER_40_233
*1438 FILLER_40_245
*1439 FILLER_40_251
*1440 FILLER_40_253
*1441 FILLER_40_265
*1442 FILLER_40_27
*1443 FILLER_40_277
*1444 FILLER_40_289
*1445 FILLER_40_29
*1446 FILLER_40_297
*1447 FILLER_40_3
*1448 FILLER_40_41
*1449 FILLER_40_53
*1450 FILLER_40_57
*1451 FILLER_40_61
*1452 FILLER_40_67
*1453 FILLER_40_72
*1454 FILLER_40_85
*1455 FILLER_40_97
*1456 FILLER_41_105
*1457 FILLER_41_111
*1458 FILLER_41_113
*1459 FILLER_41_125
*1460 FILLER_41_133
*1461 FILLER_41_142
*1462 FILLER_41_15
*1463 FILLER_41_154
*1464 FILLER_41_164
*1465 FILLER_41_169
*1466 FILLER_41_181
*1467 FILLER_41_187
*1468 FILLER_41_193
*1469 FILLER_41_205
*1470 FILLER_41_217
*1471 FILLER_41_223
*1472 FILLER_41_225
*1473 FILLER_41_237
*1474 FILLER_41_249
*1475 FILLER_41_261
*1476 FILLER_41_27
*1477 FILLER_41_273
*1478 FILLER_41_279
*1479 FILLER_41_281
*1480 FILLER_41_293
*1481 FILLER_41_3
*1482 FILLER_41_39
*1483 FILLER_41_51
*1484 FILLER_41_55
*1485 FILLER_41_57
*1486 FILLER_41_69
*1487 FILLER_41_76
*1488 FILLER_41_85
*1489 FILLER_41_93
*1490 FILLER_42_109
*1491 FILLER_42_121
*1492 FILLER_42_133
*1493 FILLER_42_139
*1494 FILLER_42_141
*1495 FILLER_42_15
*1496 FILLER_42_153
*1497 FILLER_42_165
*1498 FILLER_42_177
*1499 FILLER_42_192
*1500 FILLER_42_197
*1501 FILLER_42_209
*1502 FILLER_42_221
*1503 FILLER_42_233
*1504 FILLER_42_245
*1505 FILLER_42_251
*1506 FILLER_42_253
*1507 FILLER_42_265
*1508 FILLER_42_27
*1509 FILLER_42_277
*1510 FILLER_42_289
*1511 FILLER_42_29
*1512 FILLER_42_297
*1513 FILLER_42_3
*1514 FILLER_42_41
*1515 FILLER_42_53
*1516 FILLER_42_65
*1517 FILLER_42_77
*1518 FILLER_42_83
*1519 FILLER_42_85
*1520 FILLER_42_97
*1521 FILLER_43_105
*1522 FILLER_43_111
*1523 FILLER_43_113
*1524 FILLER_43_125
*1525 FILLER_43_141
*1526 FILLER_43_149
*1527 FILLER_43_15
*1528 FILLER_43_157
*1529 FILLER_43_165
*1530 FILLER_43_169
*1531 FILLER_43_181
*1532 FILLER_43_193
*1533 FILLER_43_205
*1534 FILLER_43_217
*1535 FILLER_43_223
*1536 FILLER_43_225
*1537 FILLER_43_237
*1538 FILLER_43_249
*1539 FILLER_43_261
*1540 FILLER_43_27
*1541 FILLER_43_273
*1542 FILLER_43_279
*1543 FILLER_43_281
*1544 FILLER_43_293
*1545 FILLER_43_3
*1546 FILLER_43_39
*1547 FILLER_43_51
*1548 FILLER_43_55
*1549 FILLER_43_57
*1550 FILLER_43_69
*1551 FILLER_43_81
*1552 FILLER_43_93
*1553 FILLER_44_101
*1554 FILLER_44_113
*1555 FILLER_44_125
*1556 FILLER_44_137
*1557 FILLER_44_141
*1558 FILLER_44_15
*1559 FILLER_44_153
*1560 FILLER_44_165
*1561 FILLER_44_173
*1562 FILLER_44_181
*1563 FILLER_44_193
*1564 FILLER_44_197
*1565 FILLER_44_209
*1566 FILLER_44_221
*1567 FILLER_44_233
*1568 FILLER_44_245
*1569 FILLER_44_251
*1570 FILLER_44_253
*1571 FILLER_44_265
*1572 FILLER_44_27
*1573 FILLER_44_277
*1574 FILLER_44_289
*1575 FILLER_44_29
*1576 FILLER_44_297
*1577 FILLER_44_3
*1578 FILLER_44_41
*1579 FILLER_44_53
*1580 FILLER_44_65
*1581 FILLER_44_73
*1582 FILLER_44_81
*1583 FILLER_44_85
*1584 FILLER_44_93
*1585 FILLER_45_105
*1586 FILLER_45_111
*1587 FILLER_45_113
*1588 FILLER_45_125
*1589 FILLER_45_137
*1590 FILLER_45_149
*1591 FILLER_45_15
*1592 FILLER_45_161
*1593 FILLER_45_167
*1594 FILLER_45_169
*1595 FILLER_45_181
*1596 FILLER_45_193
*1597 FILLER_45_205
*1598 FILLER_45_217
*1599 FILLER_45_223
*1600 FILLER_45_225
*1601 FILLER_45_237
*1602 FILLER_45_249
*1603 FILLER_45_261
*1604 FILLER_45_27
*1605 FILLER_45_273
*1606 FILLER_45_279
*1607 FILLER_45_281
*1608 FILLER_45_293
*1609 FILLER_45_3
*1610 FILLER_45_39
*1611 FILLER_45_51
*1612 FILLER_45_55
*1613 FILLER_45_57
*1614 FILLER_45_69
*1615 FILLER_45_81
*1616 FILLER_45_93
*1617 FILLER_46_109
*1618 FILLER_46_121
*1619 FILLER_46_133
*1620 FILLER_46_139
*1621 FILLER_46_141
*1622 FILLER_46_153
*1623 FILLER_46_165
*1624 FILLER_46_177
*1625 FILLER_46_189
*1626 FILLER_46_195
*1627 FILLER_46_197
*1628 FILLER_46_20
*1629 FILLER_46_209
*1630 FILLER_46_221
*1631 FILLER_46_233
*1632 FILLER_46_245
*1633 FILLER_46_251
*1634 FILLER_46_253
*1635 FILLER_46_265
*1636 FILLER_46_277
*1637 FILLER_46_289
*1638 FILLER_46_29
*1639 FILLER_46_297
*1640 FILLER_46_3
*1641 FILLER_46_41
*1642 FILLER_46_53
*1643 FILLER_46_65
*1644 FILLER_46_77
*1645 FILLER_46_8
*1646 FILLER_46_83
*1647 FILLER_46_85
*1648 FILLER_46_97
*1649 FILLER_47_105
*1650 FILLER_47_111
*1651 FILLER_47_113
*1652 FILLER_47_125
*1653 FILLER_47_137
*1654 FILLER_47_149
*1655 FILLER_47_15
*1656 FILLER_47_161
*1657 FILLER_47_167
*1658 FILLER_47_169
*1659 FILLER_47_181
*1660 FILLER_47_193
*1661 FILLER_47_205
*1662 FILLER_47_217
*1663 FILLER_47_223
*1664 FILLER_47_225
*1665 FILLER_47_237
*1666 FILLER_47_249
*1667 FILLER_47_261