*SPEF "ieee 1481-1999"
*DESIGN "pwm_gen"
*DATE "11:11:11 Fri 11 11, 1111"
*VENDOR "OpenRCX"
*PROGRAM "Parallel Extraction"
*VERSION "1.0"
*DESIGN_FLOW "NAME_SCOPE LOCAL" "PIN_CAP NONE"
*DIVIDER /
*DELIMITER :
*BUS_DELIMITER []
*T_UNIT 1 NS
*C_UNIT 1 PF
*R_UNIT 1 OHM
*L_UNIT 1 HENRY

*NAME_MAP
*1 io_in[0]
*2 io_in[1]
*3 io_in[2]
*4 io_in[3]
*5 io_in[4]
*6 io_in[5]
*7 io_in[6]
*8 io_in[7]
*9 io_out[0]
*10 io_out[1]
*11 io_out[2]
*12 io_out[3]
*13 io_out[4]
*14 io_out[5]
*15 io_out[6]
*16 io_out[7]
*19 _000_
*20 _001_
*21 _002_
*22 _003_
*23 _004_
*24 _005_
*25 _006_
*26 _007_
*27 _008_
*28 _009_
*29 _010_
*30 _011_
*31 _012_
*32 _013_
*33 _014_
*34 _015_
*35 _016_
*36 _017_
*37 _018_
*38 _019_
*39 _020_
*40 _021_
*41 _022_
*42 _023_
*43 _024_
*44 _025_
*45 _026_
*46 _027_
*47 _028_
*48 _029_
*49 _030_
*50 _031_
*51 _032_
*52 _033_
*53 _034_
*54 _035_
*55 _036_
*56 _037_
*57 _038_
*58 _039_
*59 _040_
*60 _041_
*61 _042_
*62 _043_
*63 _044_
*64 _045_
*65 _046_
*66 _047_
*67 _048_
*68 _049_
*69 _050_
*70 _051_
*71 _052_
*72 _053_
*73 _054_
*74 _055_
*75 _056_
*76 _057_
*77 _058_
*78 _059_
*79 _060_
*80 _061_
*81 _062_
*82 _063_
*83 _064_
*84 _065_
*85 _066_
*86 _067_
*87 _068_
*88 _069_
*89 _070_
*90 _071_
*91 _072_
*92 _073_
*93 _074_
*94 _075_
*95 _076_
*96 _077_
*97 _078_
*98 _079_
*99 _080_
*100 clknet_0_io_in[0]
*101 clknet_1_0__leaf_io_in[0]
*102 clknet_1_1__leaf_io_in[0]
*103 counter_state
*104 net1
*105 pwm
*106 pwm_counter\[0\]
*107 pwm_counter\[1\]
*108 pwm_counter\[2\]
*109 pwm_counter\[3\]
*110 pwm_counter\[4\]
*111 pwm_counter\[5\]
*112 FILLER_0_109
*113 FILLER_0_113
*114 FILLER_0_125
*115 FILLER_0_137
*116 FILLER_0_141
*117 FILLER_0_153
*118 FILLER_0_165
*119 FILLER_0_169
*120 FILLER_0_181
*121 FILLER_0_193
*122 FILLER_0_197
*123 FILLER_0_209
*124 FILLER_0_221
*125 FILLER_0_225
*126 FILLER_0_237
*127 FILLER_0_249
*128 FILLER_0_253
*129 FILLER_0_26
*130 FILLER_0_265
*131 FILLER_0_277
*132 FILLER_0_281
*133 FILLER_0_29
*134 FILLER_0_293
*135 FILLER_0_3
*136 FILLER_0_50
*137 FILLER_0_57
*138 FILLER_0_75
*139 FILLER_0_82
*140 FILLER_0_85
*141 FILLER_0_97
*142 FILLER_10_109
*143 FILLER_10_12
*144 FILLER_10_121
*145 FILLER_10_133
*146 FILLER_10_139
*147 FILLER_10_141
*148 FILLER_10_153
*149 FILLER_10_165
*150 FILLER_10_177
*151 FILLER_10_189
*152 FILLER_10_195
*153 FILLER_10_197
*154 FILLER_10_209
*155 FILLER_10_221
*156 FILLER_10_233
*157 FILLER_10_24
*158 FILLER_10_245
*159 FILLER_10_251
*160 FILLER_10_253
*161 FILLER_10_265
*162 FILLER_10_277
*163 FILLER_10_289
*164 FILLER_10_29
*165 FILLER_10_297
*166 FILLER_10_3
*167 FILLER_10_41
*168 FILLER_10_47
*169 FILLER_10_55
*170 FILLER_10_69
*171 FILLER_10_81
*172 FILLER_10_85
*173 FILLER_10_97
*174 FILLER_11_109
*175 FILLER_11_113
*176 FILLER_11_125
*177 FILLER_11_137
*178 FILLER_11_149
*179 FILLER_11_161
*180 FILLER_11_167
*181 FILLER_11_169
*182 FILLER_11_181
*183 FILLER_11_193
*184 FILLER_11_205
*185 FILLER_11_217
*186 FILLER_11_223
*187 FILLER_11_225
*188 FILLER_11_23
*189 FILLER_11_237
*190 FILLER_11_249
*191 FILLER_11_261
*192 FILLER_11_273
*193 FILLER_11_279
*194 FILLER_11_281
*195 FILLER_11_293
*196 FILLER_11_3
*197 FILLER_11_34
*198 FILLER_11_42
*199 FILLER_11_48
*200 FILLER_11_57
*201 FILLER_11_65
*202 FILLER_11_73
*203 FILLER_11_85
*204 FILLER_11_97
*205 FILLER_12_104
*206 FILLER_12_110
*207 FILLER_12_122
*208 FILLER_12_135
*209 FILLER_12_139
*210 FILLER_12_141
*211 FILLER_12_15
*212 FILLER_12_153
*213 FILLER_12_165
*214 FILLER_12_177
*215 FILLER_12_189
*216 FILLER_12_195
*217 FILLER_12_197
*218 FILLER_12_209
*219 FILLER_12_221
*220 FILLER_12_233
*221 FILLER_12_245
*222 FILLER_12_251
*223 FILLER_12_253
*224 FILLER_12_265
*225 FILLER_12_27
*226 FILLER_12_277
*227 FILLER_12_289
*228 FILLER_12_29
*229 FILLER_12_297
*230 FILLER_12_3
*231 FILLER_12_37
*232 FILLER_12_47
*233 FILLER_12_56
*234 FILLER_12_68
*235 FILLER_12_80
*236 FILLER_12_85
*237 FILLER_12_92
*238 FILLER_13_105
*239 FILLER_13_111
*240 FILLER_13_113
*241 FILLER_13_125
*242 FILLER_13_13
*243 FILLER_13_137
*244 FILLER_13_149
*245 FILLER_13_161
*246 FILLER_13_167
*247 FILLER_13_169
*248 FILLER_13_181
*249 FILLER_13_193
*250 FILLER_13_205
*251 FILLER_13_217
*252 FILLER_13_223
*253 FILLER_13_225
*254 FILLER_13_237
*255 FILLER_13_249
*256 FILLER_13_25
*257 FILLER_13_261
*258 FILLER_13_273
*259 FILLER_13_279
*260 FILLER_13_281
*261 FILLER_13_293
*262 FILLER_13_3
*263 FILLER_13_34
*264 FILLER_13_42
*265 FILLER_13_48
*266 FILLER_13_57
*267 FILLER_13_69
*268 FILLER_13_81
*269 FILLER_13_93
*270 FILLER_14_103
*271 FILLER_14_115
*272 FILLER_14_121
*273 FILLER_14_133
*274 FILLER_14_139
*275 FILLER_14_141
*276 FILLER_14_15
*277 FILLER_14_153
*278 FILLER_14_165
*279 FILLER_14_177
*280 FILLER_14_189
*281 FILLER_14_19
*282 FILLER_14_195
*283 FILLER_14_197
*284 FILLER_14_209
*285 FILLER_14_221
*286 FILLER_14_233
*287 FILLER_14_245
*288 FILLER_14_251
*289 FILLER_14_253
*290 FILLER_14_265
*291 FILLER_14_27
*292 FILLER_14_277
*293 FILLER_14_289
*294 FILLER_14_29
*295 FILLER_14_297
*296 FILLER_14_3
*297 FILLER_14_39
*298 FILLER_14_51
*299 FILLER_14_56
*300 FILLER_14_68
*301 FILLER_14_80
*302 FILLER_14_85
*303 FILLER_14_91
*304 FILLER_15_106
*305 FILLER_15_113
*306 FILLER_15_125
*307 FILLER_15_137
*308 FILLER_15_149
*309 FILLER_15_15
*310 FILLER_15_161
*311 FILLER_15_167
*312 FILLER_15_169
*313 FILLER_15_181
*314 FILLER_15_19
*315 FILLER_15_193
*316 FILLER_15_205
*317 FILLER_15_217
*318 FILLER_15_223
*319 FILLER_15_225
*320 FILLER_15_237
*321 FILLER_15_249
*322 FILLER_15_261
*323 FILLER_15_27
*324 FILLER_15_273
*325 FILLER_15_279
*326 FILLER_15_281
*327 FILLER_15_293
*328 FILLER_15_3
*329 FILLER_15_39
*330 FILLER_15_51
*331 FILLER_15_55
*332 FILLER_15_57
*333 FILLER_15_62
*334 FILLER_15_68
*335 FILLER_15_75
*336 FILLER_15_87
*337 FILLER_15_99
*338 FILLER_16_109
*339 FILLER_16_121
*340 FILLER_16_133
*341 FILLER_16_139
*342 FILLER_16_141
*343 FILLER_16_15
*344 FILLER_16_153
*345 FILLER_16_165
*346 FILLER_16_177
*347 FILLER_16_189
*348 FILLER_16_195
*349 FILLER_16_197
*350 FILLER_16_209
*351 FILLER_16_221
*352 FILLER_16_233
*353 FILLER_16_245
*354 FILLER_16_251
*355 FILLER_16_253
*356 FILLER_16_265
*357 FILLER_16_27
*358 FILLER_16_277
*359 FILLER_16_289
*360 FILLER_16_29
*361 FILLER_16_297
*362 FILLER_16_3
*363 FILLER_16_35
*364 FILLER_16_40
*365 FILLER_16_52
*366 FILLER_16_64
*367 FILLER_16_76
*368 FILLER_16_85
*369 FILLER_16_97
*370 FILLER_17_105
*371 FILLER_17_111
*372 FILLER_17_113
*373 FILLER_17_12
*374 FILLER_17_125
*375 FILLER_17_137
*376 FILLER_17_149
*377 FILLER_17_161
*378 FILLER_17_167
*379 FILLER_17_169
*380 FILLER_17_181
*381 FILLER_17_193
*382 FILLER_17_205
*383 FILLER_17_21
*384 FILLER_17_217
*385 FILLER_17_223
*386 FILLER_17_225
*387 FILLER_17_237
*388 FILLER_17_249
*389 FILLER_17_261
*390 FILLER_17_273
*391 FILLER_17_279
*392 FILLER_17_281
*393 FILLER_17_293
*394 FILLER_17_3
*395 FILLER_17_33
*396 FILLER_17_40
*397 FILLER_17_54
*398 FILLER_17_57
*399 FILLER_17_69
*400 FILLER_17_81
*401 FILLER_17_93
*402 FILLER_18_109
*403 FILLER_18_121
*404 FILLER_18_133
*405 FILLER_18_139
*406 FILLER_18_141
*407 FILLER_18_153
*408 FILLER_18_165
*409 FILLER_18_177
*410 FILLER_18_18
*411 FILLER_18_189
*412 FILLER_18_195
*413 FILLER_18_197
*414 FILLER_18_209
*415 FILLER_18_221
*416 FILLER_18_233
*417 FILLER_18_245
*418 FILLER_18_251
*419 FILLER_18_253
*420 FILLER_18_26
*421 FILLER_18_265
*422 FILLER_18_277
*423 FILLER_18_289
*424 FILLER_18_29
*425 FILLER_18_297
*426 FILLER_18_3
*427 FILLER_18_35
*428 FILLER_18_42
*429 FILLER_18_54
*430 FILLER_18_66
*431 FILLER_18_78
*432 FILLER_18_85
*433 FILLER_18_97
*434 FILLER_19_105
*435 FILLER_19_111
*436 FILLER_19_113
*437 FILLER_19_125
*438 FILLER_19_133
*439 FILLER_19_139
*440 FILLER_19_15
*441 FILLER_19_151
*442 FILLER_19_163
*443 FILLER_19_167
*444 FILLER_19_169
*445 FILLER_19_181
*446 FILLER_19_193
*447 FILLER_19_205
*448 FILLER_19_217
*449 FILLER_19_223
*450 FILLER_19_225
*451 FILLER_19_237
*452 FILLER_19_249
*453 FILLER_19_26
*454 FILLER_19_261
*455 FILLER_19_273
*456 FILLER_19_279
*457 FILLER_19_281
*458 FILLER_19_293
*459 FILLER_19_3
*460 FILLER_19_38
*461 FILLER_19_50
*462 FILLER_19_57
*463 FILLER_19_69
*464 FILLER_19_81
*465 FILLER_19_93
*466 FILLER_1_103
*467 FILLER_1_111
*468 FILLER_1_113
*469 FILLER_1_125
*470 FILLER_1_137
*471 FILLER_1_149
*472 FILLER_1_15
*473 FILLER_1_161
*474 FILLER_1_167
*475 FILLER_1_169
*476 FILLER_1_181
*477 FILLER_1_193
*478 FILLER_1_205
*479 FILLER_1_217
*480 FILLER_1_223
*481 FILLER_1_225
*482 FILLER_1_237
*483 FILLER_1_249
*484 FILLER_1_261
*485 FILLER_1_273
*486 FILLER_1_279
*487 FILLER_1_281
*488 FILLER_1_293
*489 FILLER_1_3
*490 FILLER_1_36
*491 FILLER_1_42
*492 FILLER_1_46
*493 FILLER_1_54
*494 FILLER_1_57
*495 FILLER_1_68
*496 FILLER_1_79
*497 FILLER_1_91
*498 FILLER_20_109
*499 FILLER_20_121
*500 FILLER_20_133
*501 FILLER_20_139
*502 FILLER_20_141
*503 FILLER_20_15
*504 FILLER_20_153
*505 FILLER_20_165
*506 FILLER_20_177
*507 FILLER_20_189
*508 FILLER_20_195
*509 FILLER_20_197
*510 FILLER_20_209
*511 FILLER_20_221
*512 FILLER_20_233
*513 FILLER_20_245
*514 FILLER_20_251
*515 FILLER_20_253
*516 FILLER_20_265
*517 FILLER_20_27
*518 FILLER_20_277
*519 FILLER_20_289
*520 FILLER_20_29
*521 FILLER_20_297
*522 FILLER_20_3
*523 FILLER_20_33
*524 FILLER_20_42
*525 FILLER_20_54
*526 FILLER_20_66
*527 FILLER_20_78
*528 FILLER_20_85
*529 FILLER_20_97
*530 FILLER_21_108
*531 FILLER_21_113
*532 FILLER_21_125
*533 FILLER_21_13
*534 FILLER_21_137
*535 FILLER_21_149
*536 FILLER_21_161
*537 FILLER_21_167
*538 FILLER_21_169
*539 FILLER_21_181
*540 FILLER_21_193
*541 FILLER_21_205
*542 FILLER_21_217
*543 FILLER_21_223
*544 FILLER_21_225
*545 FILLER_21_237
*546 FILLER_21_24
*547 FILLER_21_249
*548 FILLER_21_261
*549 FILLER_21_273
*550 FILLER_21_279
*551 FILLER_21_281
*552 FILLER_21_293
*553 FILLER_21_3
*554 FILLER_21_36
*555 FILLER_21_48
*556 FILLER_21_57
*557 FILLER_21_69
*558 FILLER_21_81
*559 FILLER_21_89
*560 FILLER_21_96
*561 FILLER_22_109
*562 FILLER_22_11
*563 FILLER_22_121
*564 FILLER_22_133
*565 FILLER_22_139
*566 FILLER_22_141
*567 FILLER_22_153
*568 FILLER_22_165
*569 FILLER_22_177
*570 FILLER_22_189
*571 FILLER_22_195
*572 FILLER_22_197
*573 FILLER_22_209
*574 FILLER_22_221
*575 FILLER_22_23
*576 FILLER_22_233
*577 FILLER_22_245
*578 FILLER_22_251
*579 FILLER_22_253
*580 FILLER_22_265
*581 FILLER_22_27
*582 FILLER_22_277
*583 FILLER_22_289
*584 FILLER_22_29
*585 FILLER_22_297
*586 FILLER_22_3
*587 FILLER_22_41
*588 FILLER_22_53
*589 FILLER_22_65
*590 FILLER_22_77
*591 FILLER_22_83
*592 FILLER_22_85
*593 FILLER_22_97
*594 FILLER_23_10
*595 FILLER_23_101
*596 FILLER_23_109
*597 FILLER_23_113
*598 FILLER_23_125
*599 FILLER_23_137
*600 FILLER_23_149
*601 FILLER_23_161
*602 FILLER_23_167
*603 FILLER_23_169
*604 FILLER_23_181
*605 FILLER_23_193
*606 FILLER_23_205
*607 FILLER_23_217
*608 FILLER_23_22
*609 FILLER_23_223
*610 FILLER_23_225
*611 FILLER_23_237
*612 FILLER_23_249
*613 FILLER_23_261
*614 FILLER_23_273
*615 FILLER_23_279
*616 FILLER_23_281
*617 FILLER_23_293
*618 FILLER_23_3
*619 FILLER_23_34
*620 FILLER_23_46
*621 FILLER_23_54
*622 FILLER_23_57
*623 FILLER_23_65
*624 FILLER_23_77
*625 FILLER_23_89
*626 FILLER_24_109
*627 FILLER_24_121
*628 FILLER_24_13
*629 FILLER_24_133
*630 FILLER_24_139
*631 FILLER_24_141
*632 FILLER_24_153
*633 FILLER_24_165
*634 FILLER_24_177
*635 FILLER_24_189
*636 FILLER_24_195
*637 FILLER_24_197
*638 FILLER_24_209
*639 FILLER_24_221
*640 FILLER_24_233
*641 FILLER_24_245
*642 FILLER_24_25
*643 FILLER_24_251
*644 FILLER_24_253
*645 FILLER_24_265
*646 FILLER_24_277
*647 FILLER_24_289
*648 FILLER_24_29
*649 FILLER_24_297
*650 FILLER_24_3
*651 FILLER_24_41
*652 FILLER_24_53
*653 FILLER_24_59
*654 FILLER_24_71
*655 FILLER_24_83
*656 FILLER_24_85
*657 FILLER_24_97
*658 FILLER_25_105
*659 FILLER_25_111
*660 FILLER_25_113
*661 FILLER_25_125
*662 FILLER_25_13
*663 FILLER_25_137
*664 FILLER_25_149
*665 FILLER_25_161
*666 FILLER_25_167
*667 FILLER_25_169
*668 FILLER_25_181
*669 FILLER_25_193
*670 FILLER_25_205
*671 FILLER_25_217
*672 FILLER_25_223
*673 FILLER_25_225
*674 FILLER_25_237
*675 FILLER_25_249
*676 FILLER_25_25
*677 FILLER_25_261
*678 FILLER_25_273
*679 FILLER_25_279
*680 FILLER_25_281
*681 FILLER_25_293
*682 FILLER_25_3
*683 FILLER_25_37
*684 FILLER_25_49
*685 FILLER_25_55
*686 FILLER_25_57
*687 FILLER_25_69
*688 FILLER_25_81
*689 FILLER_25_93
*690 FILLER_26_109
*691 FILLER_26_121
*692 FILLER_26_133
*693 FILLER_26_139
*694 FILLER_26_141
*695 FILLER_26_15
*696 FILLER_26_153
*697 FILLER_26_165
*698 FILLER_26_177
*699 FILLER_26_189
*700 FILLER_26_195
*701 FILLER_26_197
*702 FILLER_26_209
*703 FILLER_26_221
*704 FILLER_26_233
*705 FILLER_26_245
*706 FILLER_26_251
*707 FILLER_26_253
*708 FILLER_26_265
*709 FILLER_26_27
*710 FILLER_26_277
*711 FILLER_26_289
*712 FILLER_26_29
*713 FILLER_26_297
*714 FILLER_26_3
*715 FILLER_26_41
*716 FILLER_26_53
*717 FILLER_26_60
*718 FILLER_26_72
*719 FILLER_26_85
*720 FILLER_26_97
*721 FILLER_27_100
*722 FILLER_27_113
*723 FILLER_27_125
*724 FILLER_27_137
*725 FILLER_27_14
*726 FILLER_27_149
*727 FILLER_27_161
*728 FILLER_27_167
*729 FILLER_27_169
*730 FILLER_27_181
*731 FILLER_27_193
*732 FILLER_27_205
*733 FILLER_27_217
*734 FILLER_27_223
*735 FILLER_27_225
*736 FILLER_27_237
*737 FILLER_27_249
*738 FILLER_27_26
*739 FILLER_27_261
*740 FILLER_27_273
*741 FILLER_27_279
*742 FILLER_27_281
*743 FILLER_27_293
*744 FILLER_27_3
*745 FILLER_27_38
*746 FILLER_27_50
*747 FILLER_27_57
*748 FILLER_27_65
*749 FILLER_27_76
*750 FILLER_27_88
*751 FILLER_27_9
*752 FILLER_28_109
*753 FILLER_28_121
*754 FILLER_28_133
*755 FILLER_28_139
*756 FILLER_28_141
*757 FILLER_28_15
*758 FILLER_28_153
*759 FILLER_28_165
*760 FILLER_28_177
*761 FILLER_28_189
*762 FILLER_28_195
*763 FILLER_28_197
*764 FILLER_28_209
*765 FILLER_28_221
*766 FILLER_28_233
*767 FILLER_28_245
*768 FILLER_28_251
*769 FILLER_28_253
*770 FILLER_28_26
*771 FILLER_28_265
*772 FILLER_28_277
*773 FILLER_28_289
*774 FILLER_28_29
*775 FILLER_28_297
*776 FILLER_28_3
*777 FILLER_28_35
*778 FILLER_28_47
*779 FILLER_28_59
*780 FILLER_28_64
*781 FILLER_28_72
*782 FILLER_28_76
*783 FILLER_28_85
*784 FILLER_28_97
*785 FILLER_29_105
*786 FILLER_29_111
*787 FILLER_29_113
*788 FILLER_29_125
*789 FILLER_29_137
*790 FILLER_29_149
*791 FILLER_29_161
*792 FILLER_29_167
*793 FILLER_29_169
*794 FILLER_29_18
*795 FILLER_29_181
*796 FILLER_29_193
*797 FILLER_29_205
*798 FILLER_29_217
*799 FILLER_29_223
*800 FILLER_29_225
*801 FILLER_29_237
*802 FILLER_29_249
*803 FILLER_29_261
*804 FILLER_29_273
*805 FILLER_29_279
*806 FILLER_29_281
*807 FILLER_29_293
*808 FILLER_29_3
*809 FILLER_29_30
*810 FILLER_29_42
*811 FILLER_29_54
*812 FILLER_29_57
*813 FILLER_29_69
*814 FILLER_29_81
*815 FILLER_29_93
*816 FILLER_2_109
*817 FILLER_2_121
*818 FILLER_2_133
*819 FILLER_2_139
*820 FILLER_2_141
*821 FILLER_2_153
*822 FILLER_2_165
*823 FILLER_2_177
*824 FILLER_2_189
*825 FILLER_2_195
*826 FILLER_2_197
*827 FILLER_2_209
*828 FILLER_2_221
*829 FILLER_2_233
*830 FILLER_2_24
*831 FILLER_2_245
*832 FILLER_2_251
*833 FILLER_2_253
*834 FILLER_2_265
*835 FILLER_2_277
*836 FILLER_2_289
*837 FILLER_2_29
*838 FILLER_2_297
*839 FILLER_2_3
*840 FILLER_2_48
*841 FILLER_2_68
*842 FILLER_2_80
*843 FILLER_2_85
*844 FILLER_2_97
*845 FILLER_30_109
*846 FILLER_30_121
*847 FILLER_30_133
*848 FILLER_30_139
*849 FILLER_30_141
*850 FILLER_30_15
*851 FILLER_30_153
*852 FILLER_30_165
*853 FILLER_30_177
*854 FILLER_30_189
*855 FILLER_30_195
*856 FILLER_30_197
*857 FILLER_30_209
*858 FILLER_30_221
*859 FILLER_30_233
*860 FILLER_30_245
*861 FILLER_30_251
*862 FILLER_30_253
*863 FILLER_30_265
*864 FILLER_30_27
*865 FILLER_30_277
*866 FILLER_30_289
*867 FILLER_30_29
*868 FILLER_30_297
*869 FILLER_30_3
*870 FILLER_30_41
*871 FILLER_30_53
*872 FILLER_30_65
*873 FILLER_30_77
*874 FILLER_30_83
*875 FILLER_30_85
*876 FILLER_30_97
*877 FILLER_31_103
*878 FILLER_31_111
*879 FILLER_31_113
*880 FILLER_31_125
*881 FILLER_31_137
*882 FILLER_31_149
*883 FILLER_31_15
*884 FILLER_31_161
*885 FILLER_31_167
*886 FILLER_31_169
*887 FILLER_31_181
*888 FILLER_31_193
*889 FILLER_31_205
*890 FILLER_31_217
*891 FILLER_31_223
*892 FILLER_31_225
*893 FILLER_31_237
*894 FILLER_31_249
*895 FILLER_31_261
*896 FILLER_31_27
*897 FILLER_31_273
*898 FILLER_31_279
*899 FILLER_31_281
*900 FILLER_31_293
*901 FILLER_31_3
*902 FILLER_31_39
*903 FILLER_31_51
*904 FILLER_31_55
*905 FILLER_31_57
*906 FILLER_31_67
*907 FILLER_31_79
*908 FILLER_31_91
*909 FILLER_32_109
*910 FILLER_32_121
*911 FILLER_32_133
*912 FILLER_32_139
*913 FILLER_32_141
*914 FILLER_32_15
*915 FILLER_32_153
*916 FILLER_32_165
*917 FILLER_32_177
*918 FILLER_32_189
*919 FILLER_32_195
*920 FILLER_32_197
*921 FILLER_32_209
*922 FILLER_32_221
*923 FILLER_32_233
*924 FILLER_32_245
*925 FILLER_32_251
*926 FILLER_32_253
*927 FILLER_32_265
*928 FILLER_32_27
*929 FILLER_32_277
*930 FILLER_32_289
*931 FILLER_32_29
*932 FILLER_32_297
*933 FILLER_32_3
*934 FILLER_32_41
*935 FILLER_32_53
*936 FILLER_32_65
*937 FILLER_32_77
*938 FILLER_32_83
*939 FILLER_32_85
*940 FILLER_32_97
*941 FILLER_33_100
*942 FILLER_33_113
*943 FILLER_33_125
*944 FILLER_33_137
*945 FILLER_33_149
*946 FILLER_33_15
*947 FILLER_33_161
*948 FILLER_33_167
*949 FILLER_33_169
*950 FILLER_33_181
*951 FILLER_33_193
*952 FILLER_33_205
*953 FILLER_33_217
*954 FILLER_33_223
*955 FILLER_33_225
*956 FILLER_33_237
*957 FILLER_33_249
*958 FILLER_33_261
*959 FILLER_33_27
*960 FILLER_33_273
*961 FILLER_33_279
*962 FILLER_33_281
*963 FILLER_33_293
*964 FILLER_33_3
*965 FILLER_33_39
*966 FILLER_33_51
*967 FILLER_33_55
*968 FILLER_33_57
*969 FILLER_33_64
*970 FILLER_33_76
*971 FILLER_33_88
*972 FILLER_34_109
*973 FILLER_34_121
*974 FILLER_34_133
*975 FILLER_34_139
*976 FILLER_34_141
*977 FILLER_34_15
*978 FILLER_34_153
*979 FILLER_34_165
*980 FILLER_34_177
*981 FILLER_34_189
*982 FILLER_34_195
*983 FILLER_34_197
*984 FILLER_34_209
*985 FILLER_34_221
*986 FILLER_34_233
*987 FILLER_34_245
*988 FILLER_34_251
*989 FILLER_34_253
*990 FILLER_34_265
*991 FILLER_34_27
*992 FILLER_34_277
*993 FILLER_34_289
*994 FILLER_34_29
*995 FILLER_34_297
*996 FILLER_34_3
*997 FILLER_34_41
*998 FILLER_34_53
*999 FILLER_34_65
*1000 FILLER_34_77
*1001 FILLER_34_83
*1002 FILLER_34_85
*1003 FILLER_34_97
*1004 FILLER_35_105
*1005 FILLER_35_111
*1006 FILLER_35_113
*1007 FILLER_35_125
*1008 FILLER_35_137
*1009 FILLER_35_149
*1010 FILLER_35_15
*1011 FILLER_35_161
*1012 FILLER_35_167
*1013 FILLER_35_169
*1014 FILLER_35_181
*1015 FILLER_35_193
*1016 FILLER_35_205
*1017 FILLER_35_217
*1018 FILLER_35_223
*1019 FILLER_35_225
*1020 FILLER_35_237
*1021 FILLER_35_249
*1022 FILLER_35_261
*1023 FILLER_35_27
*1024 FILLER_35_273
*1025 FILLER_35_279
*1026 FILLER_35_281
*1027 FILLER_35_293
*1028 FILLER_35_3
*1029 FILLER_35_39
*1030 FILLER_35_46
*1031 FILLER_35_54
*1032 FILLER_35_57
*1033 FILLER_35_69
*1034 FILLER_35_81
*1035 FILLER_35_93
*1036 FILLER_36_109
*1037 FILLER_36_121
*1038 FILLER_36_133
*1039 FILLER_36_139
*1040 FILLER_36_141
*1041 FILLER_36_15
*1042 FILLER_36_153
*1043 FILLER_36_165
*1044 FILLER_36_177
*1045 FILLER_36_189
*1046 FILLER_36_195
*1047 FILLER_36_197
*1048 FILLER_36_209
*1049 FILLER_36_221
*1050 FILLER_36_233
*1051 FILLER_36_245
*1052 FILLER_36_251
*1053 FILLER_36_253
*1054 FILLER_36_265
*1055 FILLER_36_27
*1056 FILLER_36_277
*1057 FILLER_36_289
*1058 FILLER_36_29
*1059 FILLER_36_297
*1060 FILLER_36_3
*1061 FILLER_36_42
*1062 FILLER_36_54
*1063 FILLER_36_66
*1064 FILLER_36_78
*1065 FILLER_36_85
*1066 FILLER_36_97
*1067 FILLER_37_105
*1068 FILLER_37_111
*1069 FILLER_37_113
*1070 FILLER_37_125
*1071 FILLER_37_137
*1072 FILLER_37_149
*1073 FILLER_37_15
*1074 FILLER_37_161
*1075 FILLER_37_167
*1076 FILLER_37_169
*1077 FILLER_37_181
*1078 FILLER_37_193
*1079 FILLER_37_205
*1080 FILLER_37_217
*1081 FILLER_37_223
*1082 FILLER_37_225
*1083 FILLER_37_237
*1084 FILLER_37_249
*1085 FILLER_37_261
*1086 FILLER_37_27
*1087 FILLER_37_273
*1088 FILLER_37_279
*1089 FILLER_37_281
*1090 FILLER_37_293
*1091 FILLER_37_3
*1092 FILLER_37_39
*1093 FILLER_37_51
*1094 FILLER_37_55
*1095 FILLER_37_57
*1096 FILLER_37_69
*1097 FILLER_37_81
*1098 FILLER_37_93
*1099 FILLER_38_109
*1100 FILLER_38_121
*1101 FILLER_38_133
*1102 FILLER_38_139
*1103 FILLER_38_141
*1104 FILLER_38_15
*1105 FILLER_38_153
*1106 FILLER_38_165
*1107 FILLER_38_177
*1108 FILLER_38_189
*1109 FILLER_38_195
*1110 FILLER_38_197
*1111 FILLER_38_209
*1112 FILLER_38_221
*1113 FILLER_38_233
*1114 FILLER_38_245
*1115 FILLER_38_251
*1116 FILLER_38_253
*1117 FILLER_38_265
*1118 FILLER_38_27
*1119 FILLER_38_277
*1120 FILLER_38_289
*1121 FILLER_38_29
*1122 FILLER_38_297
*1123 FILLER_38_3
*1124 FILLER_38_41
*1125 FILLER_38_53
*1126 FILLER_38_65
*1127 FILLER_38_77
*1128 FILLER_38_83
*1129 FILLER_38_85
*1130 FILLER_38_97
*1131 FILLER_39_105
*1132 FILLER_39_111
*1133 FILLER_39_113
*1134 FILLER_39_125
*1135 FILLER_39_137
*1136 FILLER_39_149
*1137 FILLER_39_15
*1138 FILLER_39_161
*1139 FILLER_39_167
*1140 FILLER_39_169
*1141 FILLER_39_181
*1142 FILLER_39_193
*1143 FILLER_39_205
*1144 FILLER_39_217
*1145 FILLER_39_223
*1146 FILLER_39_225
*1147 FILLER_39_237
*1148 FILLER_39_249
*1149 FILLER_39_261
*1150 FILLER_39_27
*1151 FILLER_39_273
*1152 FILLER_39_279
*1153 FILLER_39_281
*1154 FILLER_39_293
*1155 FILLER_39_3
*1156 FILLER_39_39
*1157 FILLER_39_51
*1158 FILLER_39_55
*1159 FILLER_39_57
*1160 FILLER_39_69
*1161 FILLER_39_81
*1162 FILLER_39_93
*1163 FILLER_3_109
*1164 FILLER_3_113
*1165 FILLER_3_125
*1166 FILLER_3_137
*1167 FILLER_3_149
*1168 FILLER_3_161
*1169 FILLER_3_167
*1170 FILLER_3_169
*1171 FILLER_3_181
*1172 FILLER_3_193
*1173 FILLER_3_205
*1174 FILLER_3_217
*1175 FILLER_3_223
*1176 FILLER_3_225
*1177 FILLER_3_237
*1178 FILLER_3_249
*1179 FILLER_3_261
*1180 FILLER_3_273
*1181 FILLER_3_279
*1182 FILLER_3_281
*1183 FILLER_3_293
*1184 FILLER_3_3
*1185 FILLER_3_40
*1186 FILLER_3_52
*1187 FILLER_3_57
*1188 FILLER_3_61
*1189 FILLER_3_70
*1190 FILLER_3_80
*1191 FILLER_3_9
*1192 FILLER_3_92
*1193 FILLER_3_97
*1194 FILLER_40_109
*1195 FILLER_40_121
*1196 FILLER_40_133
*1197 FILLER_40_139
*1198 FILLER_40_141
*1199 FILLER_40_15
*1200 FILLER_40_153
*1201 FILLER_40_165
*1202 FILLER_40_177
*1203 FILLER_40_189
*1204 FILLER_40_195
*1205 FILLER_40_197
*1206 FILLER_40_209
*1207 FILLER_40_221
*1208 FILLER_40_233
*1209 FILLER_40_245
*1210 FILLER_40_251
*1211 FILLER_40_253
*1212 FILLER_40_265
*1213 FILLER_40_27
*1214 FILLER_40_277
*1215 FILLER_40_289
*1216 FILLER_40_29
*1217 FILLER_40_297
*1218 FILLER_40_3
*1219 FILLER_40_38
*1220 FILLER_40_50
*1221 FILLER_40_62
*1222 FILLER_40_74
*1223 FILLER_40_82
*1224 FILLER_40_85
*1225 FILLER_40_97
*1226 FILLER_41_105
*1227 FILLER_41_111
*1228 FILLER_41_113
*1229 FILLER_41_125
*1230 FILLER_41_137
*1231 FILLER_41_149
*1232 FILLER_41_15
*1233 FILLER_41_161
*1234 FILLER_41_167
*1235 FILLER_41_169
*1236 FILLER_41_181
*1237 FILLER_41_193
*1238 FILLER_41_205
*1239 FILLER_41_217
*1240 FILLER_41_223
*1241 FILLER_41_225
*1242 FILLER_41_237
*1243 FILLER_41_249
*1244 FILLER_41_261
*1245 FILLER_41_27
*1246 FILLER_41_273
*1247 FILLER_41_279
*1248 FILLER_41_281
*1249 FILLER_41_293
*1250 FILLER_41_3
*1251 FILLER_41_39
*1252 FILLER_41_51
*1253 FILLER_41_55
*1254 FILLER_41_57
*1255 FILLER_41_69
*1256 FILLER_41_81
*1257 FILLER_41_93
*1258 FILLER_42_109
*1259 FILLER_42_121
*1260 FILLER_42_133
*1261 FILLER_42_139
*1262 FILLER_42_141
*1263 FILLER_42_15
*1264 FILLER_42_153
*1265 FILLER_42_165
*1266 FILLER_42_177
*1267 FILLER_42_189
*1268 FILLER_42_195
*1269 FILLER_42_197
*1270 FILLER_42_209
*1271 FILLER_42_221
*1272 FILLER_42_233
*1273 FILLER_42_245
*1274 FILLER_42_251
*1275 FILLER_42_253
*1276 FILLER_42_265
*1277 FILLER_42_27
*1278 FILLER_42_277
*1279 FILLER_42_289
*1280 FILLER_42_29
*1281 FILLER_42_297
*1282 FILLER_42_3
*1283 FILLER_42_41
*1284 FILLER_42_53
*1285 FILLER_42_65
*1286 FILLER_42_77
*1287 FILLER_42_83
*1288 FILLER_42_85
*1289 FILLER_42_97
*1290 FILLER_43_105
*1291 FILLER_43_111
*1292 FILLER_43_113
*1293 FILLER_43_125
*1294 FILLER_43_137
*1295 FILLER_43_149
*1296 FILLER_43_15
*1297 FILLER_43_161
*1298 FILLER_43_167
*1299 FILLER_43_169
*1300 FILLER_43_181
*1301 FILLER_43_193
*1302 FILLER_43_205
*1303 FILLER_43_217
*1304 FILLER_43_223
*1305 FILLER_43_225
*1306 FILLER_43_237
*1307 FILLER_43_249
*1308 FILLER_43_261
*1309 FILLER_43_27
*1310 FILLER_43_273
*1311 FILLER_43_279
*1312 FILLER_43_281
*1313 FILLER_43_293
*1314 FILLER_43_3
*1315 FILLER_43_39
*1316 FILLER_43_51
*1317 FILLER_43_55
*1318 FILLER_43_57
*1319 FILLER_43_69
*1320 FILLER_43_81
*1321 FILLER_43_93
*1322 FILLER_44_109
*1323 FILLER_44_121
*1324 FILLER_44_133
*1325 FILLER_44_139
*1326 FILLER_44_141
*1327 FILLER_44_15
*1328 FILLER_44_153
*1329 FILLER_44_165
*1330 FILLER_44_177
*1331 FILLER_44_189
*1332 FILLER_44_195
*1333 FILLER_44_197
*1334 FILLER_44_209
*1335 FILLER_44_221
*1336 FILLER_44_233
*1337 FILLER_44_245
*1338 FILLER_44_251
*1339 FILLER_44_253
*1340 FILLER_44_265
*1341 FILLER_44_27
*1342 FILLER_44_277
*1343 FILLER_44_289
*1344 FILLER_44_29
*1345 FILLER_44_297
*1346 FILLER_44_3
*1347 FILLER_44_41
*1348 FILLER_44_53
*1349 FILLER_44_65
*1350 FILLER_44_77
*1351 FILLER_44_83
*1352 FILLER_44_85
*1353 FILLER_44_97
*1354 FILLER_45_105
*1355 FILLER_45_111
*1356 FILLER_45_113
*1357 FILLER_45_125
*1358 FILLER_45_137
*1359 FILLER_45_149
*1360 FILLER_45_15
*1361 FILLER_45_161
*1362 FILLER_45_167
*1363 FILLER_45_169
*1364 FILLER_45_181
*1365 FILLER_45_193
*1366 FILLER_45_205
*1367 FILLER_45_217
*1368 FILLER_45_223
*1369 FILLER_45_225
*1370 FILLER_45_237
*1371 FILLER_45_249
*1372 FILLER_45_261
*1373 FILLER_45_27
*1374 FILLER_45_273
*1375 FILLER_45_279
*1376 FILLER_45_281
*1377 FILLER_45_293
*1378 FILLER_45_3
*1379 FILLER_45_39
*1380 FILLER_45_51
*1381 FILLER_45_55
*1382 FILLER_45_57
*1383 FILLER_45_69
*1384 FILLER_45_81
*1385 FILLER_45_93
*1386 FILLER_46_109
*1387 FILLER_46_121
*1388 FILLER_46_133
*1389 FILLER_46_139
*1390 FILLER_46_141
*1391 FILLER_46_15
*1392 FILLER_46_153
*1393 FILLER_46_165
*1394 FILLER_46_177
*1395 FILLER_46_189
*1396 FILLER_46_195
*1397 FILLER_46_197
*1398 FILLER_46_209
*1399 FILLER_46_221
*1400 FILLER_46_233
*1401 FILLER_46_245
*1402 FILLER_46_251
*1403 FILLER_46_253
*1404 FILLER_46_265
*1405 FILLER_46_27
*1406 FILLER_46_277
*1407 FILLER_46_289
*1408 FILLER_46_29
*1409 FILLER_46_297
*1410 FILLER_46_3
*1411 FILLER_46_41
*1412 FILLER_46_53
*1413 FILLER_46_65
*1414 FILLER_46_77
*1415 FILLER_46_83
*1416 FILLER_46_85
*1417 FILLER_46_97
*1418 FILLER_47_105
*1419 FILLER_47_111
*1420 FILLER_47_113
*1421 FILLER_47_125
*1422 FILLER_47_13
*1423 FILLER_47_137
*1424 FILLER_47_149
*1425 FILLER_47_161
*1426 FILLER_47_167
*1427 FILLER_47_169
*1428 FILLER_47_181
*1429 FILLER_47_193
*1430 FILLER_47_205
*1431 FILLER_47_217
*1432 FILLER_47_223
*1433 FILLER_47_225
*1434 FILLER_47_237
*1435 FILLER_47_249
*1436 FILLER_47_25
*1437 FILLER_47_261
*1438 FILLER_47_273
*1439 FILLER_47_279
*1440 FILLER_47_281
*1441 FILLER_47_293
*1442 FILLER_47_3
*1443 FILLER_47_37
*1444 FILLER_47_49
*1445 FILLER_47_55
*1446 FILLER_47_57
*1447 FILLER_47_69
*1448 FILLER_47_81
*1449 FILLER_47_9
*1450 FILLER_47_93
*1451 FILLER_48_109
*1452 FILLER_48_121
*1453 FILLER_48_133
*1454 FILLER_48_139
*1455 FILLER_48_141
*1456 FILLER_48_15
*1457 FILLER_48_153
*1458 FILLER_48_165
*1459 FILLER_48_177
*1460 FILLER_48_189
*1461 FILLER_48_195
*1462 FILLER_48_197
*1463 FILLER_48_209
*1464 FILLER_48_221
*1465 FILLER_48_233
*1466 FILLER_48_245
*1467 FILLER_48_251
*1468 FILLER_48_253
*1469 FILLER_48_265
*1470 FILLER_48_27
*1471 FILLER_48_277
*1472 FILLER_48_289
*1473 FILLER_48_29
*1474 FILLER_48_297
*1475 FILLER_48_3
*1476 FILLER_48_41
*1477 FILLER_48_53
*1478 FILLER_48_65
*1479 FILLER_48_77
*1480 FILLER_48_83
*1481 FILLER_48_85
*1482 FILLER_48_97
*1483 FILLER_49_105
*1484 FILLER_49_111
*1485 FILLER_49_113
*1486 FILLER_49_125
*1487 FILLER_49_137
*1488 FILLER_49_149
*1489 FILLER_49_15
*1490 FILLER_49_161
*1491 FILLER_49_167
*1492 FILLER_49_169
*1493 FILLER_49_181
*1494 FILLER_49_193
*1495 FILLER_49_205
*1496 FILLER_49_217
*1497 FILLER_49_223
*1498 FILLER_49_225
*1499 FILLER_49_237
*1500 FILLER_49_249
*1501 FILLER_49_261
*1502 FILLER_49_27
*1503 FILLER_49_273
*1504 FILLER_49_279
*1505 FILLER_49_281
*1506 FILLER_49_293
*1507 FILLER_49_3
*1508 FILLER_49_39
*1509 FILLER_49_51
*1510 FILLER_49_55
*1511 FILLER_49_57
*1512 FILLER_49_69
*1513 FILLER_49_81
*1514 FILLER_49_93
*1515 FILLER_4_109
*1516 FILLER_4_121
*1517 FILLER_4_133
*1518 FILLER_4_139
*1519 FILLER_4_141
*1520 FILLER_4_153
*1521 FILLER_4_165
*1522 FILLER_4_177
*1523 FILLER_4_189
*1524 FILLER_4_195
*1525 FILLER_4_197
*1526 FILLER_4_209
*1527 FILLER_4_221
*1528 FILLER_4_233
*1529 FILLER_4_24
*1530 FILLER_4_245
*1531 FILLER_4_251
*1532 FILLER_4_253
*1533 FILLER_4_265
*1534 FILLER_4_277
*1535 FILLER_4_289
*1536 FILLER_4_29
*1537 FILLER_4_297
*1538 FILLER_4_3
*1539 FILLER_4_51
*1540 FILLER_4_71
*1541 FILLER_4_77
*1542 FILLER_4_81
*1543 FILLER_4_85
*1544 FILLER_4_97
*1545 FILLER_50_109
*1546 FILLER_50_121
*1547 FILLER_50_133
*1548 FILLER_50_139
*1549 FILLER_50_141
*1550 FILLER_50_15
*1551 FILLER_50_153
*1552 FILLER_50_165
*1553 FILLER_50_177
*1554 FILLER_50_189
*1555 FILLER_50_195
*1556 FILLER_50_197
*1557 FILLER_50_209
*1558 FILLER_50_221
*1559 FILLER_50_233
*1560 FILLER_50_245
*1561 FILLER_50_251
*1562 FILLER_50_253
*1563 FILLER_50_265
*1564 FILLER_50_27
*1565 FILLER_50_277
*1566 FILLER_50_289
*1567 FILLER_50_29
*1568 FILLER_50_297
*1569 FILLER_50_3
*1570 FILLER_50_41
*1571 FILLER_50_53
*1572 FILLER_50_65
*1573 FILLER_50_77
*1574 FILLER_50_83
*1575 FILLER_50_85
*1576 FILLER_50_97
*1577 FILLER_51_105
*1578 FILLER_51_111
*1579 FILLER_51_113
*1580 FILLER_51_125
*1581 FILLER_51_137
*1582 FILLER_51_149
*1583 FILLER_51_15
*1584 FILLER_51_161
*1585 FILLER_51_167
*1586 FILLER_51_169
*1587 FILLER_51_181
*1588 FILLER_51_193
*1589 FILLER_51_205
*1590 FILLER_51_217
*1591 FILLER_51_223
*1592 FILLER_51_225
*1593 FILLER_51_237
*1594 FILLER_51_249
*1595 FILLER_51_261
*1596 FILLER_51_27
*1597 FILLER_51_273
*1598 FILLER_51_279
*1599 FILLER_51_281
*1600 FILLER_51_293
*1601 FILLER_51_3
*1602 FILLER_51_39
*1603 FILLER_51_51
*1604 FILLER_51_55
*1605 FILLER_51_57
*1606 FILLER_51_69
*1607 FILLER_51_81
*1608 FILLER_51_93
*1609 FILLER_52_109
*1610 FILLER_52_121
*1611 FILLER_52_133