*SPEF "ieee 1481-1999"
*DESIGN "rc5_top"
*DATE "11:11:11 Fri 11 11, 1111"
*VENDOR "OpenRCX"
*PROGRAM "Parallel Extraction"
*VERSION "1.0"
*DESIGN_FLOW "NAME_SCOPE LOCAL" "PIN_CAP NONE"
*DIVIDER /
*DELIMITER :
*BUS_DELIMITER []
*T_UNIT 1 NS
*C_UNIT 1 PF
*R_UNIT 1 OHM
*L_UNIT 1 HENRY

*NAME_MAP
*1 io_in[0]
*2 io_in[1]
*3 io_in[2]
*4 io_in[3]
*5 io_in[4]
*6 io_in[5]
*7 io_in[6]
*8 io_in[7]
*9 io_out[0]
*10 io_out[1]
*11 io_out[2]
*12 io_out[3]
*13 io_out[4]
*14 io_out[5]
*15 io_out[6]
*16 net3
*19 _000_
*20 _001_
*21 _002_
*22 _003_
*23 _004_
*24 _005_
*25 _006_
*26 _007_
*27 _008_
*28 _009_
*29 _010_
*30 _011_
*31 _012_
*32 _013_
*33 _014_
*34 _015_
*35 _016_
*36 _017_
*37 _018_
*38 _019_
*39 _020_
*40 _021_
*41 _022_
*42 _023_
*43 _024_
*44 _025_
*45 _026_
*46 _027_
*47 _028_
*48 _029_
*49 _030_
*50 _031_
*51 _032_
*52 _033_
*53 _034_
*54 _035_
*55 _036_
*56 _037_
*57 _038_
*58 _039_
*59 _040_
*60 _041_
*61 _042_
*62 _043_
*63 _044_
*64 _045_
*65 _046_
*66 _047_
*67 _048_
*68 _049_
*69 _050_
*70 _051_
*71 _052_
*72 _053_
*73 _054_
*74 _055_
*75 _056_
*76 _057_
*77 _058_
*78 _059_
*79 _060_
*80 _061_
*81 _062_
*82 _063_
*83 _064_
*84 _065_
*85 _066_
*86 _067_
*87 _068_
*88 _069_
*89 _070_
*90 _071_
*91 _072_
*92 _073_
*93 _074_
*94 _075_
*95 _076_
*96 _077_
*97 _078_
*98 _079_
*99 _080_
*100 _081_
*101 _082_
*102 _083_
*103 _084_
*104 _085_
*105 _086_
*106 _087_
*107 _088_
*108 _089_
*109 _090_
*110 _091_
*111 _092_
*112 _093_
*113 _094_
*114 _095_
*115 _096_
*116 _097_
*117 _098_
*118 _099_
*119 _100_
*120 _101_
*121 _102_
*122 _103_
*123 _104_
*124 _105_
*125 _106_
*126 _107_
*127 _108_
*128 _109_
*129 _110_
*130 _111_
*131 _112_
*132 _113_
*133 _114_
*134 _115_
*135 _116_
*136 _117_
*137 _118_
*138 _119_
*139 _120_
*140 _121_
*141 _122_
*142 _123_
*143 _124_
*144 clknet_0_io_in[0]
*145 clknet_2_0__leaf_io_in[0]
*146 clknet_2_1__leaf_io_in[0]
*147 clknet_2_2__leaf_io_in[0]
*148 clknet_2_3__leaf_io_in[0]
*149 control_d
*150 net1
*151 net2
*152 rc5\.active
*153 rc5\.counter\[0\]
*154 rc5\.counter\[1\]
*155 rc5\.counter\[2\]
*156 rc5\.counter\[3\]
*157 rc5\.o_command\[0\]
*158 rc5\.o_command\[1\]
*159 rc5\.o_command\[2\]
*160 rc5\.o_command\[3\]
*161 rc5\.o_command\[4\]
*162 rc5\.o_command\[5\]
*163 rc5\.o_control
*164 rc5\.o_valid
*165 rc5\.sr\[0\]
*166 rc5\.sr\[10\]
*167 rc5\.sr\[11\]
*168 rc5\.sr\[1\]
*169 rc5\.sr\[2\]
*170 rc5\.sr\[3\]
*171 rc5\.sr\[4\]
*172 rc5\.sr\[5\]
*173 rc5\.sr\[6\]
*174 rc5\.sr\[7\]
*175 rc5\.sr\[8\]
*176 rc5\.sr\[9\]
*177 seg7\.counter\[0\]
*178 seg7\.counter\[1\]
*179 seg7\.counter\[2\]
*180 seg7\.counter\[3\]
*181 ANTENNA_1
*182 FILLER_0_103
*183 FILLER_0_111
*184 FILLER_0_113
*185 FILLER_0_125
*186 FILLER_0_137
*187 FILLER_0_141
*188 FILLER_0_153
*189 FILLER_0_165
*190 FILLER_0_169
*191 FILLER_0_181
*192 FILLER_0_193
*193 FILLER_0_197
*194 FILLER_0_209
*195 FILLER_0_221
*196 FILLER_0_225
*197 FILLER_0_237
*198 FILLER_0_249
*199 FILLER_0_253
*200 FILLER_0_26
*201 FILLER_0_265
*202 FILLER_0_277
*203 FILLER_0_281
*204 FILLER_0_29
*205 FILLER_0_293
*206 FILLER_0_3
*207 FILLER_0_47
*208 FILLER_0_55
*209 FILLER_0_57
*210 FILLER_0_75
*211 FILLER_0_79
*212 FILLER_0_83
*213 FILLER_0_85
*214 FILLER_0_9
*215 FILLER_10_106
*216 FILLER_10_112
*217 FILLER_10_116
*218 FILLER_10_128
*219 FILLER_10_141
*220 FILLER_10_153
*221 FILLER_10_165
*222 FILLER_10_177
*223 FILLER_10_189
*224 FILLER_10_195
*225 FILLER_10_197
*226 FILLER_10_209
*227 FILLER_10_221
*228 FILLER_10_233
*229 FILLER_10_245
*230 FILLER_10_251
*231 FILLER_10_253
*232 FILLER_10_26
*233 FILLER_10_265
*234 FILLER_10_277
*235 FILLER_10_289
*236 FILLER_10_29
*237 FILLER_10_297
*238 FILLER_10_3
*239 FILLER_10_41
*240 FILLER_10_47
*241 FILLER_10_64
*242 FILLER_10_76
*243 FILLER_10_85
*244 FILLER_10_9
*245 FILLER_10_94
*246 FILLER_11_105
*247 FILLER_11_111
*248 FILLER_11_113
*249 FILLER_11_125
*250 FILLER_11_137
*251 FILLER_11_149
*252 FILLER_11_161
*253 FILLER_11_167
*254 FILLER_11_169
*255 FILLER_11_181
*256 FILLER_11_193
*257 FILLER_11_205
*258 FILLER_11_217
*259 FILLER_11_223
*260 FILLER_11_225
*261 FILLER_11_237
*262 FILLER_11_24
*263 FILLER_11_249
*264 FILLER_11_261
*265 FILLER_11_273
*266 FILLER_11_279
*267 FILLER_11_281
*268 FILLER_11_293
*269 FILLER_11_3
*270 FILLER_11_36
*271 FILLER_11_54
*272 FILLER_11_57
*273 FILLER_11_69
*274 FILLER_11_81
*275 FILLER_11_93
*276 FILLER_12_101
*277 FILLER_12_113
*278 FILLER_12_125
*279 FILLER_12_137
*280 FILLER_12_141
*281 FILLER_12_156
*282 FILLER_12_168
*283 FILLER_12_180
*284 FILLER_12_192
*285 FILLER_12_197
*286 FILLER_12_209
*287 FILLER_12_221
*288 FILLER_12_233
*289 FILLER_12_245
*290 FILLER_12_25
*291 FILLER_12_251
*292 FILLER_12_253
*293 FILLER_12_265
*294 FILLER_12_277
*295 FILLER_12_289
*296 FILLER_12_29
*297 FILLER_12_297
*298 FILLER_12_3
*299 FILLER_12_41
*300 FILLER_12_47
*301 FILLER_12_65
*302 FILLER_12_77
*303 FILLER_12_83
*304 FILLER_12_85
*305 FILLER_12_93
*306 FILLER_13_111
*307 FILLER_13_113
*308 FILLER_13_125
*309 FILLER_13_137
*310 FILLER_13_149
*311 FILLER_13_15
*312 FILLER_13_165
*313 FILLER_13_169
*314 FILLER_13_181
*315 FILLER_13_193
*316 FILLER_13_205
*317 FILLER_13_21
*318 FILLER_13_217
*319 FILLER_13_223
*320 FILLER_13_225
*321 FILLER_13_237
*322 FILLER_13_249
*323 FILLER_13_261
*324 FILLER_13_273
*325 FILLER_13_279
*326 FILLER_13_281
*327 FILLER_13_293
*328 FILLER_13_3
*329 FILLER_13_39
*330 FILLER_13_51
*331 FILLER_13_55
*332 FILLER_13_57
*333 FILLER_13_75
*334 FILLER_13_87
*335 FILLER_13_99
*336 FILLER_14_105
*337 FILLER_14_113
*338 FILLER_14_125
*339 FILLER_14_137
*340 FILLER_14_141
*341 FILLER_14_153
*342 FILLER_14_165
*343 FILLER_14_177
*344 FILLER_14_189
*345 FILLER_14_195
*346 FILLER_14_197
*347 FILLER_14_209
*348 FILLER_14_22
*349 FILLER_14_221
*350 FILLER_14_233
*351 FILLER_14_245
*352 FILLER_14_251
*353 FILLER_14_253
*354 FILLER_14_265
*355 FILLER_14_277
*356 FILLER_14_289
*357 FILLER_14_29
*358 FILLER_14_297
*359 FILLER_14_3
*360 FILLER_14_41
*361 FILLER_14_47
*362 FILLER_14_64
*363 FILLER_14_76
*364 FILLER_14_85
*365 FILLER_14_97
*366 FILLER_15_108
*367 FILLER_15_113
*368 FILLER_15_125
*369 FILLER_15_137
*370 FILLER_15_149
*371 FILLER_15_15
*372 FILLER_15_161
*373 FILLER_15_167
*374 FILLER_15_169
*375 FILLER_15_181
*376 FILLER_15_193
*377 FILLER_15_205
*378 FILLER_15_21
*379 FILLER_15_217
*380 FILLER_15_223
*381 FILLER_15_225
*382 FILLER_15_237
*383 FILLER_15_249
*384 FILLER_15_261
*385 FILLER_15_273
*386 FILLER_15_279
*387 FILLER_15_281
*388 FILLER_15_293
*389 FILLER_15_3
*390 FILLER_15_38
*391 FILLER_15_50
*392 FILLER_15_57
*393 FILLER_15_69
*394 FILLER_15_75
*395 FILLER_15_87
*396 FILLER_15_96
*397 FILLER_16_107
*398 FILLER_16_115
*399 FILLER_16_124
*400 FILLER_16_133
*401 FILLER_16_139
*402 FILLER_16_141
*403 FILLER_16_153
*404 FILLER_16_165
*405 FILLER_16_177
*406 FILLER_16_189
*407 FILLER_16_195
*408 FILLER_16_197
*409 FILLER_16_209
*410 FILLER_16_21
*411 FILLER_16_221
*412 FILLER_16_233
*413 FILLER_16_245
*414 FILLER_16_251
*415 FILLER_16_253
*416 FILLER_16_265
*417 FILLER_16_27
*418 FILLER_16_277
*419 FILLER_16_289
*420 FILLER_16_29
*421 FILLER_16_297
*422 FILLER_16_3
*423 FILLER_16_41
*424 FILLER_16_60
*425 FILLER_16_72
*426 FILLER_16_85
*427 FILLER_16_95
*428 FILLER_17_105
*429 FILLER_17_111
*430 FILLER_17_113
*431 FILLER_17_119
*432 FILLER_17_131
*433 FILLER_17_143
*434 FILLER_17_15
*435 FILLER_17_155
*436 FILLER_17_167
*437 FILLER_17_169
*438 FILLER_17_181
*439 FILLER_17_193
*440 FILLER_17_205
*441 FILLER_17_217
*442 FILLER_17_223
*443 FILLER_17_225
*444 FILLER_17_237
*445 FILLER_17_249
*446 FILLER_17_261
*447 FILLER_17_27
*448 FILLER_17_273
*449 FILLER_17_279
*450 FILLER_17_281
*451 FILLER_17_293
*452 FILLER_17_3
*453 FILLER_17_33
*454 FILLER_17_42
*455 FILLER_17_54
*456 FILLER_17_57
*457 FILLER_17_69
*458 FILLER_17_81
*459 FILLER_17_93
*460 FILLER_18_102
*461 FILLER_18_110
*462 FILLER_18_119
*463 FILLER_18_131
*464 FILLER_18_139
*465 FILLER_18_141
*466 FILLER_18_15
*467 FILLER_18_153
*468 FILLER_18_165
*469 FILLER_18_177
*470 FILLER_18_189
*471 FILLER_18_195
*472 FILLER_18_197
*473 FILLER_18_209
*474 FILLER_18_221
*475 FILLER_18_233
*476 FILLER_18_245
*477 FILLER_18_251
*478 FILLER_18_253
*479 FILLER_18_265
*480 FILLER_18_27
*481 FILLER_18_277
*482 FILLER_18_289
*483 FILLER_18_29
*484 FILLER_18_297
*485 FILLER_18_3
*486 FILLER_18_41
*487 FILLER_18_53
*488 FILLER_18_65
*489 FILLER_18_77
*490 FILLER_18_83
*491 FILLER_18_85
*492 FILLER_18_94
*493 FILLER_19_101
*494 FILLER_19_109
*495 FILLER_19_113
*496 FILLER_19_122
*497 FILLER_19_129
*498 FILLER_19_141
*499 FILLER_19_15
*500 FILLER_19_153
*501 FILLER_19_165
*502 FILLER_19_169
*503 FILLER_19_181
*504 FILLER_19_193
*505 FILLER_19_205
*506 FILLER_19_217
*507 FILLER_19_223
*508 FILLER_19_225
*509 FILLER_19_237
*510 FILLER_19_249
*511 FILLER_19_261
*512 FILLER_19_27
*513 FILLER_19_273
*514 FILLER_19_279
*515 FILLER_19_281
*516 FILLER_19_293
*517 FILLER_19_3
*518 FILLER_19_39
*519 FILLER_19_47
*520 FILLER_19_54
*521 FILLER_19_57
*522 FILLER_19_69
*523 FILLER_19_77
*524 FILLER_19_89
*525 FILLER_1_107
*526 FILLER_1_111
*527 FILLER_1_113
*528 FILLER_1_139
*529 FILLER_1_15
*530 FILLER_1_151
*531 FILLER_1_163
*532 FILLER_1_167
*533 FILLER_1_169
*534 FILLER_1_181
*535 FILLER_1_193
*536 FILLER_1_205
*537 FILLER_1_217
*538 FILLER_1_223
*539 FILLER_1_225
*540 FILLER_1_237
*541 FILLER_1_249
*542 FILLER_1_261
*543 FILLER_1_273
*544 FILLER_1_279
*545 FILLER_1_281
*546 FILLER_1_293
*547 FILLER_1_3
*548 FILLER_1_33
*549 FILLER_1_54
*550 FILLER_1_57
*551 FILLER_1_75
*552 FILLER_1_95
*553 FILLER_20_101
*554 FILLER_20_113
*555 FILLER_20_125
*556 FILLER_20_137
*557 FILLER_20_141
*558 FILLER_20_15
*559 FILLER_20_153
*560 FILLER_20_165
*561 FILLER_20_177
*562 FILLER_20_189
*563 FILLER_20_195
*564 FILLER_20_197
*565 FILLER_20_209
*566 FILLER_20_221
*567 FILLER_20_233
*568 FILLER_20_245
*569 FILLER_20_251
*570 FILLER_20_253
*571 FILLER_20_265
*572 FILLER_20_27
*573 FILLER_20_277
*574 FILLER_20_289
*575 FILLER_20_29
*576 FILLER_20_297
*577 FILLER_20_3
*578 FILLER_20_41
*579 FILLER_20_53
*580 FILLER_20_65
*581 FILLER_20_77
*582 FILLER_20_83
*583 FILLER_20_85
*584 FILLER_20_93
*585 FILLER_21_110
*586 FILLER_21_113
*587 FILLER_21_122
*588 FILLER_21_134
*589 FILLER_21_15
*590 FILLER_21_154
*591 FILLER_21_166
*592 FILLER_21_169
*593 FILLER_21_181
*594 FILLER_21_193
*595 FILLER_21_205
*596 FILLER_21_217
*597 FILLER_21_223
*598 FILLER_21_225
*599 FILLER_21_237
*600 FILLER_21_249
*601 FILLER_21_261
*602 FILLER_21_27
*603 FILLER_21_273
*604 FILLER_21_279
*605 FILLER_21_281
*606 FILLER_21_293
*607 FILLER_21_3
*608 FILLER_21_39
*609 FILLER_21_51
*610 FILLER_21_55
*611 FILLER_21_57
*612 FILLER_21_69
*613 FILLER_21_81
*614 FILLER_21_87
*615 FILLER_21_91
*616 FILLER_21_99
*617 FILLER_22_110
*618 FILLER_22_117
*619 FILLER_22_129
*620 FILLER_22_137
*621 FILLER_22_141
*622 FILLER_22_15
*623 FILLER_22_153
*624 FILLER_22_165
*625 FILLER_22_177
*626 FILLER_22_189
*627 FILLER_22_195
*628 FILLER_22_197
*629 FILLER_22_209
*630 FILLER_22_221
*631 FILLER_22_233
*632 FILLER_22_245
*633 FILLER_22_251
*634 FILLER_22_253
*635 FILLER_22_26
*636 FILLER_22_265
*637 FILLER_22_277
*638 FILLER_22_289
*639 FILLER_22_29
*640 FILLER_22_297
*641 FILLER_22_3
*642 FILLER_22_40
*643 FILLER_22_52
*644 FILLER_22_60
*645 FILLER_22_69
*646 FILLER_22_82
*647 FILLER_22_85
*648 FILLER_22_96
*649 FILLER_23_104
*650 FILLER_23_113
*651 FILLER_23_125
*652 FILLER_23_132
*653 FILLER_23_144
*654 FILLER_23_15
*655 FILLER_23_156
*656 FILLER_23_169
*657 FILLER_23_174
*658 FILLER_23_186
*659 FILLER_23_198
*660 FILLER_23_21
*661 FILLER_23_210
*662 FILLER_23_222
*663 FILLER_23_225
*664 FILLER_23_237
*665 FILLER_23_249
*666 FILLER_23_261
*667 FILLER_23_273
*668 FILLER_23_279
*669 FILLER_23_281
*670 FILLER_23_293
*671 FILLER_23_3
*672 FILLER_23_33
*673 FILLER_23_45
*674 FILLER_23_53
*675 FILLER_23_57
*676 FILLER_23_63
*677 FILLER_23_68
*678 FILLER_23_80
*679 FILLER_23_92
*680 FILLER_24_103
*681 FILLER_24_107
*682 FILLER_24_115
*683 FILLER_24_122
*684 FILLER_24_132
*685 FILLER_24_141
*686 FILLER_24_15
*687 FILLER_24_152
*688 FILLER_24_161
*689 FILLER_24_178
*690 FILLER_24_190
*691 FILLER_24_197
*692 FILLER_24_209
*693 FILLER_24_221
*694 FILLER_24_233
*695 FILLER_24_245
*696 FILLER_24_251
*697 FILLER_24_253
*698 FILLER_24_265
*699 FILLER_24_27
*700 FILLER_24_277
*701 FILLER_24_289
*702 FILLER_24_29
*703 FILLER_24_297
*704 FILLER_24_3
*705 FILLER_24_41
*706 FILLER_24_53
*707 FILLER_24_65
*708 FILLER_24_77
*709 FILLER_24_83
*710 FILLER_24_85
*711 FILLER_24_97
*712 FILLER_25_101
*713 FILLER_25_109
*714 FILLER_25_113
*715 FILLER_25_123
*716 FILLER_25_140
*717 FILLER_25_15
*718 FILLER_25_152
*719 FILLER_25_164
*720 FILLER_25_169
*721 FILLER_25_181
*722 FILLER_25_193
*723 FILLER_25_205
*724 FILLER_25_217
*725 FILLER_25_223
*726 FILLER_25_225
*727 FILLER_25_237
*728 FILLER_25_249
*729 FILLER_25_261
*730 FILLER_25_27
*731 FILLER_25_273
*732 FILLER_25_279
*733 FILLER_25_281
*734 FILLER_25_293
*735 FILLER_25_3
*736 FILLER_25_39
*737 FILLER_25_51
*738 FILLER_25_55
*739 FILLER_25_57
*740 FILLER_25_69
*741 FILLER_25_81
*742 FILLER_25_89
*743 FILLER_26_109
*744 FILLER_26_118
*745 FILLER_26_131
*746 FILLER_26_138
*747 FILLER_26_141
*748 FILLER_26_153
*749 FILLER_26_165
*750 FILLER_26_177
*751 FILLER_26_18
*752 FILLER_26_189
*753 FILLER_26_195
*754 FILLER_26_197
*755 FILLER_26_209
*756 FILLER_26_221
*757 FILLER_26_233
*758 FILLER_26_245
*759 FILLER_26_25
*760 FILLER_26_251
*761 FILLER_26_253
*762 FILLER_26_265
*763 FILLER_26_277
*764 FILLER_26_289
*765 FILLER_26_29
*766 FILLER_26_297
*767 FILLER_26_3
*768 FILLER_26_36
*769 FILLER_26_48
*770 FILLER_26_60
*771 FILLER_26_72
*772 FILLER_26_85
*773 FILLER_26_97
*774 FILLER_27_102
*775 FILLER_27_110
*776 FILLER_27_113
*777 FILLER_27_125
*778 FILLER_27_129
*779 FILLER_27_139
*780 FILLER_27_15
*781 FILLER_27_151
*782 FILLER_27_163
*783 FILLER_27_167
*784 FILLER_27_169
*785 FILLER_27_181
*786 FILLER_27_193
*787 FILLER_27_205
*788 FILLER_27_21
*789 FILLER_27_217
*790 FILLER_27_223
*791 FILLER_27_225
*792 FILLER_27_237
*793 FILLER_27_249
*794 FILLER_27_26
*795 FILLER_27_261
*796 FILLER_27_273
*797 FILLER_27_279
*798 FILLER_27_281
*799 FILLER_27_293
*800 FILLER_27_3
*801 FILLER_27_38
*802 FILLER_27_50
*803 FILLER_27_57
*804 FILLER_27_69
*805 FILLER_27_85
*806 FILLER_27_93
*807 FILLER_28_105
*808 FILLER_28_114
*809 FILLER_28_126
*810 FILLER_28_138
*811 FILLER_28_141
*812 FILLER_28_15
*813 FILLER_28_153
*814 FILLER_28_165
*815 FILLER_28_177
*816 FILLER_28_189
*817 FILLER_28_195
*818 FILLER_28_197
*819 FILLER_28_209
*820 FILLER_28_221
*821 FILLER_28_233
*822 FILLER_28_245
*823 FILLER_28_251
*824 FILLER_28_253
*825 FILLER_28_265
*826 FILLER_28_27
*827 FILLER_28_277
*828 FILLER_28_289
*829 FILLER_28_29
*830 FILLER_28_297
*831 FILLER_28_3
*832 FILLER_28_41
*833 FILLER_28_53
*834 FILLER_28_65
*835 FILLER_28_73
*836 FILLER_28_82
*837 FILLER_28_85
*838 FILLER_28_95
*839 FILLER_29_103
*840 FILLER_29_111
*841 FILLER_29_113
*842 FILLER_29_125
*843 FILLER_29_133
*844 FILLER_29_144
*845 FILLER_29_15
*846 FILLER_29_155
*847 FILLER_29_167
*848 FILLER_29_169
*849 FILLER_29_181
*850 FILLER_29_193
*851 FILLER_29_205
*852 FILLER_29_217
*853 FILLER_29_223
*854 FILLER_29_225
*855 FILLER_29_237
*856 FILLER_29_249
*857 FILLER_29_261
*858 FILLER_29_27
*859 FILLER_29_273
*860 FILLER_29_279
*861 FILLER_29_281
*862 FILLER_29_293
*863 FILLER_29_3
*864 FILLER_29_39
*865 FILLER_29_51
*866 FILLER_29_55
*867 FILLER_29_57
*868 FILLER_29_69
*869 FILLER_29_79
*870 FILLER_29_91
*871 FILLER_2_103
*872 FILLER_2_111
*873 FILLER_2_121
*874 FILLER_2_133
*875 FILLER_2_139
*876 FILLER_2_141
*877 FILLER_2_153
*878 FILLER_2_165
*879 FILLER_2_177
*880 FILLER_2_189
*881 FILLER_2_195
*882 FILLER_2_197
*883 FILLER_2_209
*884 FILLER_2_21
*885 FILLER_2_221
*886 FILLER_2_233
*887 FILLER_2_245
*888 FILLER_2_251
*889 FILLER_2_253
*890 FILLER_2_265
*891 FILLER_2_27
*892 FILLER_2_277
*893 FILLER_2_289
*894 FILLER_2_29
*895 FILLER_2_297
*896 FILLER_2_3
*897 FILLER_2_41
*898 FILLER_2_65
*899 FILLER_2_77
*900 FILLER_2_83
*901 FILLER_2_85
*902 FILLER_30_109
*903 FILLER_30_12
*904 FILLER_30_121
*905 FILLER_30_133
*906 FILLER_30_137
*907 FILLER_30_141
*908 FILLER_30_153
*909 FILLER_30_165
*910 FILLER_30_177
*911 FILLER_30_189
*912 FILLER_30_195
*913 FILLER_30_197
*914 FILLER_30_209
*915 FILLER_30_221
*916 FILLER_30_233
*917 FILLER_30_24
*918 FILLER_30_245
*919 FILLER_30_251
*920 FILLER_30_253
*921 FILLER_30_265
*922 FILLER_30_277
*923 FILLER_30_289
*924 FILLER_30_29
*925 FILLER_30_297
*926 FILLER_30_3
*927 FILLER_30_45
*928 FILLER_30_57
*929 FILLER_30_69
*930 FILLER_30_7
*931 FILLER_30_81
*932 FILLER_30_85
*933 FILLER_30_97
*934 FILLER_31_103
*935 FILLER_31_111
*936 FILLER_31_113
*937 FILLER_31_125
*938 FILLER_31_137
*939 FILLER_31_149
*940 FILLER_31_15
*941 FILLER_31_161
*942 FILLER_31_167
*943 FILLER_31_169
*944 FILLER_31_181
*945 FILLER_31_193
*946 FILLER_31_205
*947 FILLER_31_217
*948 FILLER_31_223
*949 FILLER_31_225
*950 FILLER_31_237
*951 FILLER_31_249
*952 FILLER_31_261
*953 FILLER_31_273
*954 FILLER_31_279
*955 FILLER_31_281
*956 FILLER_31_29
*957 FILLER_31_293
*958 FILLER_31_3
*959 FILLER_31_41
*960 FILLER_31_53
*961 FILLER_31_57
*962 FILLER_31_69
*963 FILLER_31_81
*964 FILLER_31_92
*965 FILLER_32_115
*966 FILLER_32_127
*967 FILLER_32_137
*968 FILLER_32_141
*969 FILLER_32_15
*970 FILLER_32_153
*971 FILLER_32_165
*972 FILLER_32_177
*973 FILLER_32_189
*974 FILLER_32_195
*975 FILLER_32_197
*976 FILLER_32_209
*977 FILLER_32_221
*978 FILLER_32_233
*979 FILLER_32_245
*980 FILLER_32_251
*981 FILLER_32_253
*982 FILLER_32_265
*983 FILLER_32_27
*984 FILLER_32_277
*985 FILLER_32_289
*986 FILLER_32_29
*987 FILLER_32_297
*988 FILLER_32_3
*989 FILLER_32_34
*990 FILLER_32_46
*991 FILLER_32_58
*992 FILLER_32_70
*993 FILLER_32_82
*994 FILLER_32_85
*995 FILLER_32_93
*996 FILLER_33_105
*997 FILLER_33_111
*998 FILLER_33_113
*999 FILLER_33_125
*1000 FILLER_33_137
*1001 FILLER_33_149
*1002 FILLER_33_15
*1003 FILLER_33_161
*1004 FILLER_33_167
*1005 FILLER_33_169
*1006 FILLER_33_179
*1007 FILLER_33_191
*1008 FILLER_33_203
*1009 FILLER_33_215
*1010 FILLER_33_223
*1011 FILLER_33_225
*1012 FILLER_33_237
*1013 FILLER_33_249
*1014 FILLER_33_261
*1015 FILLER_33_273
*1016 FILLER_33_279
*1017 FILLER_33_281
*1018 FILLER_33_293
*1019 FILLER_33_3
*1020 FILLER_33_31
*1021 FILLER_33_43
*1022 FILLER_33_55
*1023 FILLER_33_57
*1024 FILLER_33_69
*1025 FILLER_33_81
*1026 FILLER_33_93
*1027 FILLER_34_105
*1028 FILLER_34_117
*1029 FILLER_34_129
*1030 FILLER_34_137
*1031 FILLER_34_141
*1032 FILLER_34_15
*1033 FILLER_34_153
*1034 FILLER_34_161
*1035 FILLER_34_167
*1036 FILLER_34_179
*1037 FILLER_34_191
*1038 FILLER_34_195
*1039 FILLER_34_197
*1040 FILLER_34_209
*1041 FILLER_34_221
*1042 FILLER_34_233
*1043 FILLER_34_245
*1044 FILLER_34_251
*1045 FILLER_34_253
*1046 FILLER_34_265
*1047 FILLER_34_27
*1048 FILLER_34_277
*1049 FILLER_34_289
*1050 FILLER_34_29
*1051 FILLER_34_297
*1052 FILLER_34_3
*1053 FILLER_34_40
*1054 FILLER_34_48
*1055 FILLER_34_60
*1056 FILLER_34_72
*1057 FILLER_34_85
*1058 FILLER_34_89
*1059 FILLER_34_93
*1060 FILLER_35_101
*1061 FILLER_35_109
*1062 FILLER_35_113
*1063 FILLER_35_125
*1064 FILLER_35_137
*1065 FILLER_35_149
*1066 FILLER_35_15
*1067 FILLER_35_161
*1068 FILLER_35_167
*1069 FILLER_35_169
*1070 FILLER_35_181
*1071 FILLER_35_193
*1072 FILLER_35_205
*1073 FILLER_35_217
*1074 FILLER_35_223
*1075 FILLER_35_225
*1076 FILLER_35_237
*1077 FILLER_35_249
*1078 FILLER_35_261
*1079 FILLER_35_27
*1080 FILLER_35_273
*1081 FILLER_35_279
*1082 FILLER_35_281
*1083 FILLER_35_293
*1084 FILLER_35_3
*1085 FILLER_35_39
*1086 FILLER_35_51
*1087 FILLER_35_55
*1088 FILLER_35_57
*1089 FILLER_35_69
*1090 FILLER_35_81
*1091 FILLER_35_93
*1092 FILLER_36_10
*1093 FILLER_36_109
*1094 FILLER_36_121
*1095 FILLER_36_133
*1096 FILLER_36_139
*1097 FILLER_36_141
*1098 FILLER_36_153
*1099 FILLER_36_161
*1100 FILLER_36_168
*1101 FILLER_36_180
*1102 FILLER_36_192
*1103 FILLER_36_197
*1104 FILLER_36_209
*1105 FILLER_36_22
*1106 FILLER_36_221
*1107 FILLER_36_233
*1108 FILLER_36_245
*1109 FILLER_36_251
*1110 FILLER_36_253
*1111 FILLER_36_265
*1112 FILLER_36_277
*1113 FILLER_36_289
*1114 FILLER_36_29
*1115 FILLER_36_297
*1116 FILLER_36_3
*1117 FILLER_36_41
*1118 FILLER_36_53
*1119 FILLER_36_65
*1120 FILLER_36_77
*1121 FILLER_36_83
*1122 FILLER_36_85
*1123 FILLER_36_97
*1124 FILLER_37_100
*1125 FILLER_37_106
*1126 FILLER_37_110
*1127 FILLER_37_113
*1128 FILLER_37_12
*1129 FILLER_37_125
*1130 FILLER_37_137
*1131 FILLER_37_149
*1132 FILLER_37_161
*1133 FILLER_37_167
*1134 FILLER_37_169
*1135 FILLER_37_181
*1136 FILLER_37_193
*1137 FILLER_37_205
*1138 FILLER_37_217
*1139 FILLER_37_223
*1140 FILLER_37_225
*1141 FILLER_37_237
*1142 FILLER_37_24
*1143 FILLER_37_249
*1144 FILLER_37_261
*1145 FILLER_37_273
*1146 FILLER_37_279
*1147 FILLER_37_281
*1148 FILLER_37_293
*1149 FILLER_37_3
*1150 FILLER_37_36
*1151 FILLER_37_48
*1152 FILLER_37_57
*1153 FILLER_37_65
*1154 FILLER_37_71
*1155 FILLER_37_88
*1156 FILLER_38_104
*1157 FILLER_38_11
*1158 FILLER_38_110
*1159 FILLER_38_120
*1160 FILLER_38_132
*1161 FILLER_38_141
*1162 FILLER_38_153
*1163 FILLER_38_165
*1164 FILLER_38_177
*1165 FILLER_38_189
*1166 FILLER_38_195
*1167 FILLER_38_197
*1168 FILLER_38_209
*1169 FILLER_38_21
*1170 FILLER_38_221
*1171 FILLER_38_233
*1172 FILLER_38_245
*1173 FILLER_38_251
*1174 FILLER_38_253
*1175 FILLER_38_265
*1176 FILLER_38_27
*1177 FILLER_38_277
*1178 FILLER_38_289
*1179 FILLER_38_29
*1180 FILLER_38_297
*1181 FILLER_38_3
*1182 FILLER_38_39
*1183 FILLER_38_47
*1184 FILLER_38_53
*1185 FILLER_38_60
*1186 FILLER_38_72
*1187 FILLER_38_82
*1188 FILLER_38_85
*1189 FILLER_38_93
*1190 FILLER_39_10
*1191 FILLER_39_104
*1192 FILLER_39_113
*1193 FILLER_39_125
*1194 FILLER_39_137
*1195 FILLER_39_149
*1196 FILLER_39_161
*1197 FILLER_39_167
*1198 FILLER_39_169
*1199 FILLER_39_181
*1200 FILLER_39_193
*1201 FILLER_39_205
*1202 FILLER_39_217
*1203 FILLER_39_22
*1204 FILLER_39_223
*1205 FILLER_39_225
*1206 FILLER_39_237
*1207 FILLER_39_249
*1208 FILLER_39_261
*1209 FILLER_39_273
*1210 FILLER_39_279
*1211 FILLER_39_281
*1212 FILLER_39_293
*1213 FILLER_39_3
*1214 FILLER_39_34
*1215 FILLER_39_50
*1216 FILLER_39_57
*1217 FILLER_39_65
*1218 FILLER_39_79
*1219 FILLER_39_92
*1220 FILLER_3_111
*1221 FILLER_3_113
*1222 FILLER_3_125
*1223 FILLER_3_137
*1224 FILLER_3_149
*1225 FILLER_3_161
*1226 FILLER_3_167
*1227 FILLER_3_169
*1228 FILLER_3_181
*1229 FILLER_3_193
*1230 FILLER_3_205
*1231 FILLER_3_217
*1232 FILLER_3_223
*1233 FILLER_3_225
*1234 FILLER_3_237
*1235 FILLER_3_249
*1236 FILLER_3_25
*1237 FILLER_3_261
*1238 FILLER_3_273
*1239 FILLER_3_279
*1240 FILLER_3_281
*1241 FILLER_3_293
*1242 FILLER_3_3
*1243 FILLER_3_46
*1244 FILLER_3_54
*1245 FILLER_3_57
*1246 FILLER_3_75
*1247 FILLER_3_87
*1248 FILLER_3_99
*1249 FILLER_40_109
*1250 FILLER_40_121
*1251 FILLER_40_133
*1252 FILLER_40_139
*1253 FILLER_40_141
*1254 FILLER_40_15
*1255 FILLER_40_153
*1256 FILLER_40_165
*1257 FILLER_40_181
*1258 FILLER_40_193
*1259 FILLER_40_197
*1260 FILLER_40_209
*1261 FILLER_40_221
*1262 FILLER_40_233
*1263 FILLER_40_245
*1264 FILLER_40_251
*1265 FILLER_40_253
*1266 FILLER_40_265
*1267 FILLER_40_27
*1268 FILLER_40_277
*1269 FILLER_40_289
*1270 FILLER_40_29
*1271 FILLER_40_297
*1272 FILLER_40_3
*1273 FILLER_40_41
*1274 FILLER_40_53
*1275 FILLER_40_65
*1276 FILLER_40_77
*1277 FILLER_40_83
*1278 FILLER_40_85
*1279 FILLER_40_97
*1280 FILLER_41_110
*1281 FILLER_41_113
*1282 FILLER_41_125
*1283 FILLER_41_137
*1284 FILLER_41_149
*1285 FILLER_41_15
*1286 FILLER_41_161
*1287 FILLER_41_167
*1288 FILLER_41_169
*1289 FILLER_41_181
*1290 FILLER_41_193
*1291 FILLER_41_205
*1292 FILLER_41_217
*1293 FILLER_41_223
*1294 FILLER_41_225
*1295 FILLER_41_237
*1296 FILLER_41_249
*1297 FILLER_41_261
*1298 FILLER_41_27
*1299 FILLER_41_273
*1300 FILLER_41_279
*1301 FILLER_41_281
*1302 FILLER_41_293
*1303 FILLER_41_3
*1304 FILLER_41_31
*1305 FILLER_41_39
*1306 FILLER_41_50
*1307 FILLER_41_57
*1308 FILLER_41_62
*1309 FILLER_41_74
*1310 FILLER_41_86
*1311 FILLER_41_98
*1312 FILLER_42_109
*1313 FILLER_42_121
*1314 FILLER_42_133
*1315 FILLER_42_139
*1316 FILLER_42_141
*1317 FILLER_42_15
*1318 FILLER_42_153
*1319 FILLER_42_165
*1320 FILLER_42_177
*1321 FILLER_42_189
*1322 FILLER_42_195
*1323 FILLER_42_197
*1324 FILLER_42_209
*1325 FILLER_42_221
*1326 FILLER_42_233
*1327 FILLER_42_24
*1328 FILLER_42_245
*1329 FILLER_42_251
*1330 FILLER_42_253
*1331 FILLER_42_265
*1332 FILLER_42_277
*1333 FILLER_42_289
*1334 FILLER_42_29
*1335 FILLER_42_297
*1336 FILLER_42_3
*1337 FILLER_42_41
*1338 FILLER_42_45
*1339 FILLER_42_51
*1340 FILLER_42_61
*1341 FILLER_42_73
*1342 FILLER_42_81
*1343 FILLER_42_85
*1344 FILLER_42_97
*1345 FILLER_43_105
*1346 FILLER_43_111
*1347 FILLER_43_113
*1348 FILLER_43_125
*1349 FILLER_43_137
*1350 FILLER_43_149
*1351 FILLER_43_15
*1352 FILLER_43_161
*1353 FILLER_43_167
*1354 FILLER_43_169
*1355 FILLER_43_181
*1356 FILLER_43_193
*1357 FILLER_43_205
*1358 FILLER_43_217
*1359 FILLER_43_223
*1360 FILLER_43_225
*1361 FILLER_43_237
*1362 FILLER_43_249
*1363 FILLER_43_261
*1364 FILLER_43_27
*1365 FILLER_43_273
*1366 FILLER_43_279
*1367 FILLER_43_281
*1368 FILLER_43_293
*1369 FILLER_43_3
*1370 FILLER_43_39
*1371 FILLER_43_51
*1372 FILLER_43_55
*1373 FILLER_43_57
*1374 FILLER_43_69
*1375 FILLER_43_81
*1376 FILLER_43_93
*1377 FILLER_44_109
*1378 FILLER_44_121
*1379 FILLER_44_133
*1380 FILLER_44_139
*1381 FILLER_44_141
*1382 FILLER_44_15
*1383 FILLER_44_153
*1384 FILLER_44_165
*1385 FILLER_44_177
*1386 FILLER_44_189
*1387 FILLER_44_195
*1388 FILLER_44_197
*1389 FILLER_44_209
*1390 FILLER_44_21
*1391 FILLER_44_221
*1392 FILLER_44_233
*1393 FILLER_44_245
*1394 FILLER_44_251
*1395 FILLER_44_253
*1396 FILLER_44_265
*1397 FILLER_44_27
*1398 FILLER_44_277
*1399 FILLER_44_289
*1400 FILLER_44_29
*1401 FILLER_44_297
*1402 FILLER_44_3
*1403 FILLER_44_41
*1404 FILLER_44_53
*1405 FILLER_44_65
*1406 FILLER_44_77
*1407 FILLER_44_83
*1408 FILLER_44_85
*1409 FILLER_44_97
*1410 FILLER_45_105
*1411 FILLER_45_111
*1412 FILLER_45_113
*1413 FILLER_45_125
*1414 FILLER_45_137
*1415 FILLER_45_149
*1416 FILLER_45_15
*1417 FILLER_45_161
*1418 FILLER_45_167
*1419 FILLER_45_169
*1420 FILLER_45_181
*1421 FILLER_45_193
*1422 FILLER_45_205
*1423 FILLER_45_217
*1424 FILLER_45_223
*1425 FILLER_45_225
*1426 FILLER_45_237
*1427 FILLER_45_249
*1428 FILLER_45_261
*1429 FILLER_45_27
*1430 FILLER_45_273
*1431 FILLER_45_279
*1432 FILLER_45_281
*1433 FILLER_45_293
*1434 FILLER_45_3
*1435 FILLER_45_39
*1436 FILLER_45_51
*1437 FILLER_45_55
*1438 FILLER_45_57
*1439 FILLER_45_69
*1440 FILLER_45_81
*1441 FILLER_45_93
*1442 FILLER_46_109
*1443 FILLER_46_121
*1444 FILLER_46_133
*1445 FILLER_46_139
*1446 FILLER_46_14
*1447 FILLER_46_141
*1448 FILLER_46_153
*1449 FILLER_46_165
*1450 FILLER_46_177
*1451 FILLER_46_189
*1452 FILLER_46_195
*1453 FILLER_46_197
*1454 FILLER_46_209
*1455 FILLER_46_221
*1456 FILLER_46_233
*1457 FILLER_46_245
*1458 FILLER_46_251
*1459 FILLER_46_253
*1460 FILLER_46_26
*1461 FILLER_46_265
*1462 FILLER_46_277
*1463 FILLER_46_289
*1464 FILLER_46_29
*1465 FILLER_46_297
*1466 FILLER_46_3
*1467 FILLER_46_41
*1468 FILLER_46_53
*1469 FILLER_46_65
*1470 FILLER_46_77
*1471 FILLER_46_83
*1472 FILLER_46_85
*1473 FILLER_46_97
*1474 FILLER_47_105
*1475 FILLER_47_111
*1476 FILLER_47_113
*1477 FILLER_47_12
*1478 FILLER_47_125
*1479 FILLER_47_137
*1480 FILLER_47_149
*1481 FILLER_47_161
*1482 FILLER_47_167
*1483 FILLER_47_169
*1484 FILLER_47_181
*1485 FILLER_47_193
*1486 FILLER_47_205
*1487 FILLER_47_217
*1488 FILLER_47_223
*1489 FILLER_47_225
*1490 FILLER_47_237
*1491 FILLER_47_24
*1492 FILLER_47_249
*1493 FILLER_47_261
*1494 FILLER_47_273
*1495 FILLER_47_279
*1496 FILLER_47_281
*1497 FILLER_47_293
*1498 FILLER_47_3
*1499 FILLER_47_36
*1500 FILLER_47_48
*1501 FILLER_47_57
*1502 FILLER_47_69
*1503 FILLER_47_81
*1504 FILLER_47_93
*1505 FILLER_48_109
*1506 FILLER_48_121
*1507 FILLER_48_133
*1508 FILLER_48_139
*1509 FILLER_48_141
*1510 FILLER_48_15
*1511 FILLER_48_153
*1512 FILLER_48_165
*1513 FILLER_48_177
*1514 FILLER_48_189
*1515 FILLER_48_195
*1516 FILLER_48_197
*1517 FILLER_48_209
*1518 FILLER_48_221
*1519 FILLER_48_233
*1520 FILLER_48_245
*1521 FILLER_48_251
*1522 FILLER_48_253
*1523 FILLER_48_265
*1524 FILLER_48_27
*1525 FILLER_48_277
*1526 FILLER_48_289
*1527 FILLER_48_29
*1528 FILLER_48_297
*1529 FILLER_48_3
*1530 FILLER_48_41
*1531 FILLER_48_53
*1532 FILLER_48_65
*1533 FILLER_48_77
*1534 FILLER_48_83
*1535 FILLER_48_85
*1536 FILLER_48_97
*1537 FILLER_49_105
*1538 FILLER_49_111
*1539 FILLER_49_113
*1540 FILLER_49_125
*1541 FILLER_49_137
*1542 FILLER_49_149
*1543 FILLER_49_16
*1544 FILLER_49_161
*1545 FILLER_49_167
*1546 FILLER_49_169
*1547 FILLER_49_181
*1548 FILLER_49_193
*1549 FILLER_49_205
*1550 FILLER_49_217
*1551 FILLER_49_223
*1552 FILLER_49_225
*1553 FILLER_49_237
*1554 FILLER_49_249
*1555 FILLER_49_261
*1556 FILLER_49_273
*1557 FILLER_49_279
*1558 FILLER_49_28
*1559 FILLER_49_281
*1560 FILLER_49_293
*1561 FILLER_49_3
*1562 FILLER_49_40
*1563 FILLER_49_52
*1564 FILLER_49_57
*1565 FILLER_49_69
*1566 FILLER_49_81
*1567 FILLER_49_93
*1568 FILLER_4_109
*1569 FILLER_4_121
*1570 FILLER_4_133
*1571 FILLER_4_139
*1572 FILLER_4_141
*1573 FILLER_4_153
*1574 FILLER_4_165
*1575 FILLER_4_177
*1576 FILLER_4_189
*1577 FILLER_4_195
*1578 FILLER_4_197
*1579 FILLER_4_209
*1580 FILLER_4_221
*1581 FILLER_4_233
*1582 FILLER_4_245
*1583 FILLER_4_251
*1584 FILLER_4_253
*1585 FILLER_4_26
*1586 FILLER_4_265
*1587 FILLER_4_277
*1588 FILLER_4_289
*1589 FILLER_4_29
*1590 FILLER_4_297
*1591 FILLER_4_3
*1592 FILLER_4_41
*1593 FILLER_4_60
*1594 FILLER_4_80
*1595 FILLER_4_85
*1596 FILLER_4_9
*1597 FILLER_4_97
*1598 FILLER_50_109
*1599 FILLER_50_121
*1600 FILLER_50_133
*1601 FILLER_50_139
*1602 FILLER_50_141
*1603 FILLER_50_15
*1604 FILLER_50_153
*1605 FILLER_50_165
*1606 FILLER_50_177
*1607 FILLER_50_189
*1608 FILLER_50_195
*1609 FILLER_50_197
*1610 FILLER_50_209
*1611 FILLER_50_221
*1612 FILLER_50_233
*1613 FILLER_50_245
*1614 FILLER_50_251
*1615 FILLER_50_253
*1616 FILLER_50_265
*1617 FILLER_50_27
*1618 FILLER_50_277
*1619 FILLER_50_289
*1620 FILLER_50_29
*1621 FILLER_50_297
*1622 FILLER_50_3
*1623 FILLER_50_41
*1624 FILLER_50_53
*1625 FILLER_50_65