*SPEF "ieee 1481-1999"
*DESIGN "recepsaid_euclidean_algorithm"
*DATE "11:11:11 Fri 11 11, 1111"
*VENDOR "OpenRCX"
*PROGRAM "Parallel Extraction"
*VERSION "1.0"
*DESIGN_FLOW "NAME_SCOPE LOCAL" "PIN_CAP NONE"
*DIVIDER /
*DELIMITER :
*BUS_DELIMITER []
*T_UNIT 1 NS
*C_UNIT 1 PF
*R_UNIT 1 OHM
*L_UNIT 1 HENRY

*NAME_MAP
*1 io_in[0]
*2 io_in[1]
*3 io_in[2]
*4 io_in[3]
*5 io_in[4]
*6 io_in[5]
*7 io_in[6]
*8 io_in[7]
*9 io_out[0]
*10 io_out[1]
*11 io_out[2]
*12 io_out[3]
*13 io_out[4]
*14 io_out[5]
*15 io_out[6]
*16 net7
*19 _000_
*20 _001_
*21 _002_
*22 _003_
*23 _004_
*24 _005_
*25 _006_
*26 _007_
*27 _008_
*28 _009_
*29 _010_
*30 _011_
*31 _012_
*32 _013_
*33 _014_
*34 _015_
*35 _016_
*36 _017_
*37 _018_
*38 _019_
*39 _020_
*40 _021_
*41 _022_
*42 _023_
*43 _024_
*44 _025_
*45 _026_
*46 _027_
*47 _028_
*48 _029_
*49 _030_
*50 _031_
*51 _032_
*52 _033_
*53 _034_
*54 _035_
*55 _036_
*56 _037_
*57 _038_
*58 _039_
*59 _040_
*60 _041_
*61 _042_
*62 _043_
*63 _044_
*64 _045_
*65 _046_
*66 _047_
*67 _048_
*68 _049_
*69 _050_
*70 _051_
*71 _052_
*72 _053_
*73 _054_
*74 _055_
*75 _056_
*76 _057_
*77 _058_
*78 _059_
*79 _060_
*80 _061_
*81 _062_
*82 _063_
*83 _064_
*84 _065_
*85 _066_
*86 _067_
*87 _068_
*88 _069_
*89 _070_
*90 _071_
*91 _072_
*92 _073_
*93 _074_
*94 _075_
*95 _076_
*96 _077_
*97 _078_
*98 _079_
*99 _080_
*100 _081_
*101 _082_
*102 _083_
*103 _084_
*104 _085_
*105 _086_
*106 _087_
*107 _088_
*108 _089_
*109 _090_
*110 _091_
*111 _092_
*112 _093_
*113 _094_
*114 _095_
*115 _096_
*116 _097_
*117 _098_
*118 _099_
*119 _100_
*120 _101_
*121 _102_
*122 _103_
*123 _104_
*124 _105_
*125 _106_
*126 _107_
*127 _108_
*128 _109_
*129 _110_
*130 _111_
*131 _112_
*132 _113_
*133 _114_
*134 _115_
*135 _116_
*136 _117_
*137 _118_
*138 _119_
*139 _120_
*140 _121_
*141 _122_
*142 _123_
*143 _124_
*144 _125_
*145 _126_
*146 _127_
*147 _128_
*148 _129_
*149 _130_
*150 clknet_0_io_in[0]
*151 clknet_2_0__leaf_io_in[0]
*152 clknet_2_1__leaf_io_in[0]
*153 clknet_2_2__leaf_io_in[0]
*154 clknet_2_3__leaf_io_in[0]
*155 decoder\.decoder_out\[0\]
*156 decoder\.decoder_out\[1\]
*157 decoder\.decoder_out\[2\]
*158 decoder\.decoder_out\[3\]
*159 decoder\.decoder_out\[4\]
*160 decoder\.decoder_out\[5\]
*161 decoder\.decoder_out\[6\]
*162 decoder\.ssd_i\[0\]
*163 decoder\.ssd_i\[1\]
*164 decoder\.ssd_i\[2\]
*165 decoder\.ssd_i\[3\]
*166 gcdtop\.control\.enobeb_o
*167 gcdtop\.control\.okey_i
*168 gcdtop\.control\.present_state\[0\]
*169 gcdtop\.control\.present_state\[2\]
*170 gcdtop\.control\.present_state\[3\]
*171 gcdtop\.control\.ssub_o
*172 gcdtop\.control\.sx_o
*173 gcdtop\.data\.x_i\[0\]
*174 gcdtop\.data\.x_i\[1\]
*175 gcdtop\.data\.x_i\[2\]
*176 gcdtop\.data\.x_i\[3\]
*177 gcdtop\.data\.xi\[0\]
*178 gcdtop\.data\.xi\[1\]
*179 gcdtop\.data\.xi\[2\]
*180 gcdtop\.data\.xi\[3\]
*181 gcdtop\.data\.y_i\[0\]
*182 gcdtop\.data\.y_i\[1\]
*183 gcdtop\.data\.y_i\[2\]
*184 gcdtop\.data\.y_i\[3\]
*185 gcdtop\.data\.yi\[0\]
*186 gcdtop\.data\.yi\[1\]
*187 gcdtop\.data\.yi\[2\]
*188 gcdtop\.data\.yi\[3\]
*189 net1
*190 net2
*191 net3
*192 net4
*193 net5
*194 net6
*195 state\[0\]
*196 state\[1\]
*197 state\[2\]
*198 ANTENNA_1
*199 ANTENNA_2
*200 ANTENNA_3
*201 ANTENNA_4
*202 FILLER_0_103
*203 FILLER_0_111
*204 FILLER_0_113
*205 FILLER_0_125
*206 FILLER_0_137
*207 FILLER_0_141
*208 FILLER_0_153
*209 FILLER_0_165
*210 FILLER_0_169
*211 FILLER_0_181
*212 FILLER_0_193
*213 FILLER_0_197
*214 FILLER_0_209
*215 FILLER_0_221
*216 FILLER_0_225
*217 FILLER_0_237
*218 FILLER_0_249
*219 FILLER_0_25
*220 FILLER_0_253
*221 FILLER_0_265
*222 FILLER_0_277
*223 FILLER_0_281
*224 FILLER_0_29
*225 FILLER_0_293
*226 FILLER_0_3
*227 FILLER_0_33
*228 FILLER_0_50
*229 FILLER_0_57
*230 FILLER_0_76
*231 FILLER_0_85
*232 FILLER_10_106
*233 FILLER_10_118
*234 FILLER_10_130
*235 FILLER_10_138
*236 FILLER_10_141
*237 FILLER_10_153
*238 FILLER_10_165
*239 FILLER_10_177
*240 FILLER_10_189
*241 FILLER_10_195
*242 FILLER_10_197
*243 FILLER_10_205
*244 FILLER_10_228
*245 FILLER_10_240
*246 FILLER_10_253
*247 FILLER_10_26
*248 FILLER_10_265
*249 FILLER_10_277
*250 FILLER_10_289
*251 FILLER_10_29
*252 FILLER_10_297
*253 FILLER_10_3
*254 FILLER_10_35
*255 FILLER_10_54
*256 FILLER_10_74
*257 FILLER_10_82
*258 FILLER_10_85
*259 FILLER_10_9
*260 FILLER_10_94
*261 FILLER_11_102
*262 FILLER_11_110
*263 FILLER_11_113
*264 FILLER_11_126
*265 FILLER_11_138
*266 FILLER_11_150
*267 FILLER_11_162
*268 FILLER_11_169
*269 FILLER_11_181
*270 FILLER_11_193
*271 FILLER_11_205
*272 FILLER_11_217
*273 FILLER_11_223
*274 FILLER_11_225
*275 FILLER_11_237
*276 FILLER_11_249
*277 FILLER_11_261
*278 FILLER_11_273
*279 FILLER_11_279
*280 FILLER_11_281
*281 FILLER_11_293
*282 FILLER_11_3
*283 FILLER_11_32
*284 FILLER_11_52
*285 FILLER_11_57
*286 FILLER_11_75
*287 FILLER_11_8
*288 FILLER_11_90
*289 FILLER_12_106
*290 FILLER_12_114
*291 FILLER_12_121
*292 FILLER_12_133
*293 FILLER_12_139
*294 FILLER_12_141
*295 FILLER_12_146
*296 FILLER_12_158
*297 FILLER_12_170
*298 FILLER_12_182
*299 FILLER_12_194
*300 FILLER_12_197
*301 FILLER_12_209
*302 FILLER_12_21
*303 FILLER_12_221
*304 FILLER_12_233
*305 FILLER_12_245
*306 FILLER_12_251
*307 FILLER_12_253
*308 FILLER_12_265
*309 FILLER_12_27
*310 FILLER_12_277
*311 FILLER_12_289
*312 FILLER_12_29
*313 FILLER_12_297
*314 FILLER_12_3
*315 FILLER_12_35
*316 FILLER_12_52
*317 FILLER_12_72
*318 FILLER_12_85
*319 FILLER_12_96
*320 FILLER_13_108
*321 FILLER_13_113
*322 FILLER_13_120
*323 FILLER_13_132
*324 FILLER_13_144
*325 FILLER_13_156
*326 FILLER_13_169
*327 FILLER_13_181
*328 FILLER_13_193
*329 FILLER_13_205
*330 FILLER_13_217
*331 FILLER_13_22
*332 FILLER_13_223
*333 FILLER_13_225
*334 FILLER_13_237
*335 FILLER_13_249
*336 FILLER_13_261
*337 FILLER_13_273
*338 FILLER_13_279
*339 FILLER_13_281
*340 FILLER_13_293
*341 FILLER_13_3
*342 FILLER_13_30
*343 FILLER_13_49
*344 FILLER_13_55
*345 FILLER_13_57
*346 FILLER_13_76
*347 FILLER_13_88
*348 FILLER_13_94
*349 FILLER_13_98
*350 FILLER_14_106
*351 FILLER_14_114
*352 FILLER_14_122
*353 FILLER_14_134
*354 FILLER_14_141
*355 FILLER_14_153
*356 FILLER_14_165
*357 FILLER_14_177
*358 FILLER_14_189
*359 FILLER_14_195
*360 FILLER_14_197
*361 FILLER_14_209
*362 FILLER_14_22
*363 FILLER_14_221
*364 FILLER_14_233
*365 FILLER_14_245
*366 FILLER_14_251
*367 FILLER_14_253
*368 FILLER_14_265
*369 FILLER_14_277
*370 FILLER_14_289
*371 FILLER_14_29
*372 FILLER_14_297
*373 FILLER_14_3
*374 FILLER_14_51
*375 FILLER_14_55
*376 FILLER_14_72
*377 FILLER_14_85
*378 FILLER_14_94
*379 FILLER_14_98
*380 FILLER_15_102
*381 FILLER_15_107
*382 FILLER_15_111
*383 FILLER_15_113
*384 FILLER_15_124
*385 FILLER_15_136
*386 FILLER_15_148
*387 FILLER_15_15
*388 FILLER_15_160
*389 FILLER_15_169
*390 FILLER_15_181
*391 FILLER_15_189
*392 FILLER_15_19
*393 FILLER_15_199
*394 FILLER_15_211
*395 FILLER_15_223
*396 FILLER_15_225
*397 FILLER_15_237
*398 FILLER_15_249
*399 FILLER_15_261
*400 FILLER_15_273
*401 FILLER_15_279
*402 FILLER_15_281
*403 FILLER_15_293
*404 FILLER_15_3
*405 FILLER_15_37
*406 FILLER_15_49
*407 FILLER_15_55
*408 FILLER_15_57
*409 FILLER_15_69
*410 FILLER_15_81
*411 FILLER_15_96
*412 FILLER_16_103
*413 FILLER_16_111
*414 FILLER_16_122
*415 FILLER_16_134
*416 FILLER_16_141
*417 FILLER_16_15
*418 FILLER_16_153
*419 FILLER_16_165
*420 FILLER_16_177
*421 FILLER_16_189
*422 FILLER_16_195
*423 FILLER_16_197
*424 FILLER_16_209
*425 FILLER_16_221
*426 FILLER_16_233
*427 FILLER_16_245
*428 FILLER_16_251
*429 FILLER_16_253
*430 FILLER_16_265
*431 FILLER_16_27
*432 FILLER_16_277
*433 FILLER_16_289
*434 FILLER_16_29
*435 FILLER_16_297
*436 FILLER_16_3
*437 FILLER_16_41
*438 FILLER_16_53
*439 FILLER_16_65
*440 FILLER_16_77
*441 FILLER_16_83
*442 FILLER_16_85
*443 FILLER_16_94
*444 FILLER_17_110
*445 FILLER_17_113
*446 FILLER_17_121
*447 FILLER_17_133
*448 FILLER_17_145
*449 FILLER_17_15
*450 FILLER_17_157
*451 FILLER_17_165
*452 FILLER_17_169
*453 FILLER_17_181
*454 FILLER_17_193
*455 FILLER_17_205
*456 FILLER_17_217
*457 FILLER_17_223
*458 FILLER_17_225
*459 FILLER_17_237
*460 FILLER_17_249
*461 FILLER_17_261
*462 FILLER_17_27
*463 FILLER_17_273
*464 FILLER_17_279
*465 FILLER_17_281
*466 FILLER_17_293
*467 FILLER_17_3
*468 FILLER_17_35
*469 FILLER_17_43
*470 FILLER_17_54
*471 FILLER_17_57
*472 FILLER_17_69
*473 FILLER_17_76
*474 FILLER_17_91
*475 FILLER_17_99
*476 FILLER_18_109
*477 FILLER_18_121
*478 FILLER_18_133
*479 FILLER_18_139
*480 FILLER_18_141
*481 FILLER_18_15
*482 FILLER_18_153
*483 FILLER_18_161
*484 FILLER_18_173
*485 FILLER_18_185
*486 FILLER_18_193
*487 FILLER_18_197
*488 FILLER_18_209
*489 FILLER_18_221
*490 FILLER_18_233
*491 FILLER_18_245
*492 FILLER_18_251
*493 FILLER_18_253
*494 FILLER_18_265
*495 FILLER_18_27
*496 FILLER_18_277
*497 FILLER_18_289
*498 FILLER_18_29
*499 FILLER_18_297
*500 FILLER_18_3
*501 FILLER_18_41
*502 FILLER_18_53
*503 FILLER_18_65
*504 FILLER_18_69
*505 FILLER_18_77
*506 FILLER_18_83
*507 FILLER_18_85
*508 FILLER_18_97
*509 FILLER_19_107
*510 FILLER_19_111
*511 FILLER_19_113
*512 FILLER_19_121
*513 FILLER_19_126
*514 FILLER_19_138
*515 FILLER_19_15
*516 FILLER_19_150
*517 FILLER_19_162
*518 FILLER_19_169
*519 FILLER_19_181
*520 FILLER_19_193
*521 FILLER_19_205
*522 FILLER_19_217
*523 FILLER_19_223
*524 FILLER_19_225
*525 FILLER_19_237
*526 FILLER_19_249
*527 FILLER_19_261
*528 FILLER_19_27
*529 FILLER_19_273
*530 FILLER_19_279
*531 FILLER_19_281
*532 FILLER_19_293
*533 FILLER_19_3
*534 FILLER_19_31
*535 FILLER_19_37
*536 FILLER_19_49
*537 FILLER_19_55
*538 FILLER_19_57
*539 FILLER_19_65
*540 FILLER_19_75
*541 FILLER_19_87
*542 FILLER_19_95
*543 FILLER_1_100
*544 FILLER_1_113
*545 FILLER_1_118
*546 FILLER_1_130
*547 FILLER_1_142
*548 FILLER_1_15
*549 FILLER_1_154
*550 FILLER_1_166
*551 FILLER_1_169
*552 FILLER_1_195
*553 FILLER_1_207
*554 FILLER_1_219
*555 FILLER_1_223
*556 FILLER_1_225
*557 FILLER_1_237
*558 FILLER_1_249
*559 FILLER_1_261
*560 FILLER_1_273
*561 FILLER_1_279
*562 FILLER_1_281
*563 FILLER_1_293
*564 FILLER_1_3
*565 FILLER_1_33
*566 FILLER_1_37
*567 FILLER_1_54
*568 FILLER_1_57
*569 FILLER_1_80
*570 FILLER_20_111
*571 FILLER_20_119
*572 FILLER_20_130
*573 FILLER_20_138
*574 FILLER_20_141
*575 FILLER_20_15
*576 FILLER_20_152
*577 FILLER_20_164
*578 FILLER_20_176
*579 FILLER_20_188
*580 FILLER_20_197
*581 FILLER_20_209
*582 FILLER_20_221
*583 FILLER_20_233
*584 FILLER_20_245
*585 FILLER_20_251
*586 FILLER_20_253
*587 FILLER_20_265
*588 FILLER_20_27
*589 FILLER_20_277
*590 FILLER_20_289
*591 FILLER_20_29
*592 FILLER_20_297
*593 FILLER_20_3
*594 FILLER_20_41
*595 FILLER_20_53
*596 FILLER_20_57
*597 FILLER_20_69
*598 FILLER_20_75
*599 FILLER_20_82
*600 FILLER_20_85
*601 FILLER_20_96
*602 FILLER_21_101
*603 FILLER_21_109
*604 FILLER_21_113
*605 FILLER_21_125
*606 FILLER_21_137
*607 FILLER_21_149
*608 FILLER_21_15
*609 FILLER_21_161
*610 FILLER_21_167
*611 FILLER_21_169
*612 FILLER_21_181
*613 FILLER_21_193
*614 FILLER_21_205
*615 FILLER_21_217
*616 FILLER_21_223
*617 FILLER_21_225
*618 FILLER_21_23
*619 FILLER_21_237
*620 FILLER_21_249
*621 FILLER_21_261
*622 FILLER_21_273
*623 FILLER_21_279
*624 FILLER_21_281
*625 FILLER_21_293
*626 FILLER_21_3
*627 FILLER_21_35
*628 FILLER_21_47
*629 FILLER_21_55
*630 FILLER_21_57
*631 FILLER_21_69
*632 FILLER_21_81
*633 FILLER_21_85
*634 FILLER_21_89
*635 FILLER_22_109
*636 FILLER_22_121
*637 FILLER_22_133
*638 FILLER_22_139
*639 FILLER_22_141
*640 FILLER_22_149
*641 FILLER_22_15
*642 FILLER_22_159
*643 FILLER_22_171
*644 FILLER_22_183
*645 FILLER_22_195
*646 FILLER_22_197
*647 FILLER_22_209
*648 FILLER_22_221
*649 FILLER_22_233
*650 FILLER_22_245
*651 FILLER_22_251
*652 FILLER_22_253
*653 FILLER_22_265
*654 FILLER_22_27
*655 FILLER_22_277
*656 FILLER_22_289
*657 FILLER_22_29
*658 FILLER_22_297
*659 FILLER_22_3
*660 FILLER_22_35
*661 FILLER_22_49
*662 FILLER_22_56
*663 FILLER_22_68
*664 FILLER_22_80
*665 FILLER_22_85
*666 FILLER_22_97
*667 FILLER_23_105
*668 FILLER_23_111
*669 FILLER_23_113
*670 FILLER_23_119
*671 FILLER_23_125
*672 FILLER_23_135
*673 FILLER_23_147
*674 FILLER_23_159
*675 FILLER_23_167
*676 FILLER_23_169
*677 FILLER_23_177
*678 FILLER_23_189
*679 FILLER_23_201
*680 FILLER_23_21
*681 FILLER_23_213
*682 FILLER_23_221
*683 FILLER_23_225
*684 FILLER_23_237
*685 FILLER_23_249
*686 FILLER_23_261
*687 FILLER_23_273
*688 FILLER_23_279
*689 FILLER_23_281
*690 FILLER_23_293
*691 FILLER_23_3
*692 FILLER_23_33
*693 FILLER_23_45
*694 FILLER_23_53
*695 FILLER_23_57
*696 FILLER_23_69
*697 FILLER_23_81
*698 FILLER_23_9
*699 FILLER_23_93
*700 FILLER_24_10
*701 FILLER_24_109
*702 FILLER_24_121
*703 FILLER_24_132
*704 FILLER_24_141
*705 FILLER_24_153
*706 FILLER_24_165
*707 FILLER_24_177
*708 FILLER_24_189
*709 FILLER_24_195
*710 FILLER_24_197
*711 FILLER_24_209
*712 FILLER_24_22
*713 FILLER_24_221
*714 FILLER_24_233
*715 FILLER_24_245
*716 FILLER_24_251
*717 FILLER_24_253
*718 FILLER_24_265
*719 FILLER_24_277
*720 FILLER_24_289
*721 FILLER_24_29
*722 FILLER_24_297
*723 FILLER_24_3
*724 FILLER_24_41
*725 FILLER_24_53
*726 FILLER_24_71
*727 FILLER_24_83
*728 FILLER_24_85
*729 FILLER_24_89
*730 FILLER_24_97
*731 FILLER_25_108
*732 FILLER_25_113
*733 FILLER_25_121
*734 FILLER_25_127
*735 FILLER_25_139
*736 FILLER_25_15
*737 FILLER_25_151
*738 FILLER_25_161
*739 FILLER_25_167
*740 FILLER_25_169
*741 FILLER_25_181
*742 FILLER_25_193
*743 FILLER_25_205
*744 FILLER_25_217
*745 FILLER_25_223
*746 FILLER_25_225
*747 FILLER_25_237
*748 FILLER_25_249
*749 FILLER_25_261
*750 FILLER_25_27
*751 FILLER_25_273
*752 FILLER_25_279
*753 FILLER_25_281
*754 FILLER_25_293
*755 FILLER_25_3
*756 FILLER_25_39
*757 FILLER_25_51
*758 FILLER_25_55
*759 FILLER_25_57
*760 FILLER_25_72
*761 FILLER_25_84
*762 FILLER_25_96
*763 FILLER_26_109
*764 FILLER_26_116
*765 FILLER_26_128
*766 FILLER_26_141
*767 FILLER_26_15
*768 FILLER_26_153
*769 FILLER_26_165
*770 FILLER_26_177
*771 FILLER_26_189
*772 FILLER_26_195
*773 FILLER_26_197
*774 FILLER_26_209
*775 FILLER_26_221
*776 FILLER_26_233
*777 FILLER_26_245
*778 FILLER_26_251
*779 FILLER_26_253
*780 FILLER_26_265
*781 FILLER_26_27
*782 FILLER_26_277
*783 FILLER_26_289
*784 FILLER_26_29
*785 FILLER_26_297
*786 FILLER_26_3
*787 FILLER_26_37
*788 FILLER_26_49
*789 FILLER_26_61
*790 FILLER_26_73
*791 FILLER_26_81
*792 FILLER_26_85
*793 FILLER_26_97
*794 FILLER_27_105
*795 FILLER_27_111
*796 FILLER_27_113
*797 FILLER_27_118
*798 FILLER_27_130
*799 FILLER_27_142
*800 FILLER_27_15
*801 FILLER_27_154
*802 FILLER_27_166
*803 FILLER_27_169
*804 FILLER_27_181
*805 FILLER_27_193
*806 FILLER_27_205
*807 FILLER_27_217
*808 FILLER_27_223
*809 FILLER_27_225
*810 FILLER_27_237
*811 FILLER_27_249
*812 FILLER_27_261
*813 FILLER_27_27
*814 FILLER_27_273
*815 FILLER_27_279
*816 FILLER_27_281
*817 FILLER_27_293
*818 FILLER_27_3
*819 FILLER_27_39
*820 FILLER_27_47
*821 FILLER_27_54
*822 FILLER_27_57
*823 FILLER_27_70
*824 FILLER_27_81
*825 FILLER_27_93
*826 FILLER_28_105
*827 FILLER_28_117
*828 FILLER_28_129
*829 FILLER_28_137
*830 FILLER_28_141
*831 FILLER_28_15
*832 FILLER_28_153
*833 FILLER_28_165
*834 FILLER_28_177
*835 FILLER_28_189
*836 FILLER_28_195
*837 FILLER_28_197
*838 FILLER_28_209
*839 FILLER_28_221
*840 FILLER_28_233
*841 FILLER_28_245
*842 FILLER_28_251
*843 FILLER_28_253
*844 FILLER_28_265
*845 FILLER_28_27
*846 FILLER_28_277
*847 FILLER_28_289
*848 FILLER_28_29
*849 FILLER_28_297
*850 FILLER_28_3
*851 FILLER_28_41
*852 FILLER_28_53
*853 FILLER_28_65
*854 FILLER_28_77
*855 FILLER_28_82
*856 FILLER_28_85
*857 FILLER_28_97
*858 FILLER_29_110
*859 FILLER_29_113
*860 FILLER_29_125
*861 FILLER_29_137
*862 FILLER_29_149
*863 FILLER_29_15
*864 FILLER_29_161
*865 FILLER_29_167
*866 FILLER_29_169
*867 FILLER_29_181
*868 FILLER_29_193
*869 FILLER_29_205
*870 FILLER_29_217
*871 FILLER_29_223
*872 FILLER_29_225
*873 FILLER_29_237
*874 FILLER_29_249
*875 FILLER_29_261
*876 FILLER_29_27
*877 FILLER_29_273
*878 FILLER_29_279
*879 FILLER_29_281
*880 FILLER_29_293
*881 FILLER_29_3
*882 FILLER_29_39
*883 FILLER_29_51
*884 FILLER_29_55
*885 FILLER_29_57
*886 FILLER_29_65
*887 FILLER_29_74
*888 FILLER_29_86
*889 FILLER_29_98
*890 FILLER_2_103
*891 FILLER_2_115
*892 FILLER_2_127
*893 FILLER_2_139
*894 FILLER_2_141
*895 FILLER_2_153
*896 FILLER_2_165
*897 FILLER_2_177
*898 FILLER_2_189
*899 FILLER_2_195
*900 FILLER_2_197
*901 FILLER_2_201
*902 FILLER_2_205
*903 FILLER_2_216
*904 FILLER_2_228
*905 FILLER_2_24
*906 FILLER_2_240
*907 FILLER_2_253
*908 FILLER_2_265
*909 FILLER_2_277
*910 FILLER_2_289
*911 FILLER_2_29
*912 FILLER_2_297
*913 FILLER_2_3
*914 FILLER_2_43
*915 FILLER_2_65
*916 FILLER_2_77
*917 FILLER_2_83
*918 FILLER_2_85
*919 FILLER_30_109
*920 FILLER_30_121
*921 FILLER_30_133
*922 FILLER_30_139
*923 FILLER_30_141
*924 FILLER_30_15
*925 FILLER_30_152
*926 FILLER_30_164
*927 FILLER_30_176
*928 FILLER_30_188
*929 FILLER_30_197
*930 FILLER_30_209
*931 FILLER_30_221
*932 FILLER_30_233
*933 FILLER_30_245
*934 FILLER_30_251
*935 FILLER_30_253
*936 FILLER_30_26
*937 FILLER_30_265
*938 FILLER_30_277
*939 FILLER_30_289
*940 FILLER_30_29
*941 FILLER_30_297
*942 FILLER_30_3
*943 FILLER_30_40
*944 FILLER_30_52
*945 FILLER_30_64
*946 FILLER_30_82
*947 FILLER_30_85
*948 FILLER_30_97
*949 FILLER_31_102
*950 FILLER_31_110
*951 FILLER_31_113
*952 FILLER_31_125
*953 FILLER_31_137
*954 FILLER_31_149
*955 FILLER_31_15
*956 FILLER_31_161
*957 FILLER_31_167
*958 FILLER_31_169
*959 FILLER_31_181
*960 FILLER_31_193
*961 FILLER_31_205
*962 FILLER_31_217
*963 FILLER_31_223
*964 FILLER_31_225
*965 FILLER_31_237
*966 FILLER_31_249
*967 FILLER_31_261
*968 FILLER_31_27
*969 FILLER_31_273
*970 FILLER_31_279
*971 FILLER_31_281
*972 FILLER_31_285
*973 FILLER_31_292
*974 FILLER_31_298
*975 FILLER_31_3
*976 FILLER_31_39
*977 FILLER_31_54
*978 FILLER_31_57
*979 FILLER_31_69
*980 FILLER_31_78
*981 FILLER_31_90
*982 FILLER_32_109
*983 FILLER_32_11
*984 FILLER_32_121
*985 FILLER_32_133
*986 FILLER_32_139
*987 FILLER_32_141
*988 FILLER_32_153
*989 FILLER_32_161
*990 FILLER_32_172
*991 FILLER_32_182
*992 FILLER_32_194
*993 FILLER_32_197
*994 FILLER_32_20
*995 FILLER_32_209
*996 FILLER_32_221
*997 FILLER_32_233
*998 FILLER_32_245
*999 FILLER_32_251
*1000 FILLER_32_253
*1001 FILLER_32_265
*1002 FILLER_32_277
*1003 FILLER_32_289
*1004 FILLER_32_29
*1005 FILLER_32_297
*1006 FILLER_32_3
*1007 FILLER_32_41
*1008 FILLER_32_53
*1009 FILLER_32_65
*1010 FILLER_32_77
*1011 FILLER_32_83
*1012 FILLER_32_85
*1013 FILLER_32_97
*1014 FILLER_33_101
*1015 FILLER_33_109
*1016 FILLER_33_113
*1017 FILLER_33_125
*1018 FILLER_33_137
*1019 FILLER_33_149
*1020 FILLER_33_15
*1021 FILLER_33_161
*1022 FILLER_33_167
*1023 FILLER_33_169
*1024 FILLER_33_181
*1025 FILLER_33_193
*1026 FILLER_33_205
*1027 FILLER_33_217
*1028 FILLER_33_223
*1029 FILLER_33_225
*1030 FILLER_33_237
*1031 FILLER_33_249
*1032 FILLER_33_261
*1033 FILLER_33_27
*1034 FILLER_33_273
*1035 FILLER_33_279
*1036 FILLER_33_281
*1037 FILLER_33_293
*1038 FILLER_33_3
*1039 FILLER_33_39
*1040 FILLER_33_51
*1041 FILLER_33_55
*1042 FILLER_33_57
*1043 FILLER_33_69
*1044 FILLER_33_81
*1045 FILLER_33_89
*1046 FILLER_33_93
*1047 FILLER_34_104
*1048 FILLER_34_116
*1049 FILLER_34_128
*1050 FILLER_34_141
*1051 FILLER_34_15
*1052 FILLER_34_151
*1053 FILLER_34_160
*1054 FILLER_34_172
*1055 FILLER_34_184
*1056 FILLER_34_197
*1057 FILLER_34_209
*1058 FILLER_34_221
*1059 FILLER_34_233
*1060 FILLER_34_245
*1061 FILLER_34_251
*1062 FILLER_34_253
*1063 FILLER_34_265
*1064 FILLER_34_27
*1065 FILLER_34_277
*1066 FILLER_34_289
*1067 FILLER_34_29
*1068 FILLER_34_297
*1069 FILLER_34_3
*1070 FILLER_34_41
*1071 FILLER_34_47
*1072 FILLER_34_55
*1073 FILLER_34_65
*1074 FILLER_34_77
*1075 FILLER_34_83
*1076 FILLER_34_85
*1077 FILLER_34_92
*1078 FILLER_35_105
*1079 FILLER_35_111
*1080 FILLER_35_113
*1081 FILLER_35_125
*1082 FILLER_35_137
*1083 FILLER_35_149
*1084 FILLER_35_15
*1085 FILLER_35_161
*1086 FILLER_35_167
*1087 FILLER_35_169
*1088 FILLER_35_181
*1089 FILLER_35_193
*1090 FILLER_35_205
*1091 FILLER_35_217
*1092 FILLER_35_223
*1093 FILLER_35_225
*1094 FILLER_35_237
*1095 FILLER_35_249
*1096 FILLER_35_261
*1097 FILLER_35_27
*1098 FILLER_35_273
*1099 FILLER_35_279
*1100 FILLER_35_281
*1101 FILLER_35_293
*1102 FILLER_35_3
*1103 FILLER_35_39
*1104 FILLER_35_51
*1105 FILLER_35_55
*1106 FILLER_35_57
*1107 FILLER_35_69
*1108 FILLER_35_81
*1109 FILLER_35_93
*1110 FILLER_36_109
*1111 FILLER_36_121
*1112 FILLER_36_133
*1113 FILLER_36_139
*1114 FILLER_36_141
*1115 FILLER_36_15
*1116 FILLER_36_153
*1117 FILLER_36_165
*1118 FILLER_36_177
*1119 FILLER_36_189
*1120 FILLER_36_195
*1121 FILLER_36_197
*1122 FILLER_36_209
*1123 FILLER_36_221
*1124 FILLER_36_233
*1125 FILLER_36_245
*1126 FILLER_36_251
*1127 FILLER_36_253
*1128 FILLER_36_265
*1129 FILLER_36_27
*1130 FILLER_36_277
*1131 FILLER_36_289
*1132 FILLER_36_29
*1133 FILLER_36_297
*1134 FILLER_36_3
*1135 FILLER_36_39
*1136 FILLER_36_51
*1137 FILLER_36_63
*1138 FILLER_36_75
*1139 FILLER_36_83
*1140 FILLER_36_85
*1141 FILLER_36_97
*1142 FILLER_37_103
*1143 FILLER_37_111
*1144 FILLER_37_113
*1145 FILLER_37_125
*1146 FILLER_37_137
*1147 FILLER_37_149
*1148 FILLER_37_15
*1149 FILLER_37_161
*1150 FILLER_37_167
*1151 FILLER_37_169
*1152 FILLER_37_181
*1153 FILLER_37_193
*1154 FILLER_37_205
*1155 FILLER_37_217
*1156 FILLER_37_223
*1157 FILLER_37_225
*1158 FILLER_37_237
*1159 FILLER_37_249
*1160 FILLER_37_261
*1161 FILLER_37_27
*1162 FILLER_37_273
*1163 FILLER_37_279
*1164 FILLER_37_281
*1165 FILLER_37_293
*1166 FILLER_37_3
*1167 FILLER_37_39
*1168 FILLER_37_45
*1169 FILLER_37_53
*1170 FILLER_37_57
*1171 FILLER_37_69
*1172 FILLER_37_75
*1173 FILLER_37_79
*1174 FILLER_37_91
*1175 FILLER_38_106
*1176 FILLER_38_118
*1177 FILLER_38_130
*1178 FILLER_38_138
*1179 FILLER_38_141
*1180 FILLER_38_15
*1181 FILLER_38_153
*1182 FILLER_38_165
*1183 FILLER_38_177
*1184 FILLER_38_189
*1185 FILLER_38_195
*1186 FILLER_38_197
*1187 FILLER_38_209
*1188 FILLER_38_221
*1189 FILLER_38_233
*1190 FILLER_38_245
*1191 FILLER_38_251
*1192 FILLER_38_253
*1193 FILLER_38_265
*1194 FILLER_38_27
*1195 FILLER_38_277
*1196 FILLER_38_289
*1197 FILLER_38_29
*1198 FILLER_38_297
*1199 FILLER_38_3
*1200 FILLER_38_41
*1201 FILLER_38_53
*1202 FILLER_38_65
*1203 FILLER_38_77
*1204 FILLER_38_83
*1205 FILLER_38_85
*1206 FILLER_38_94
*1207 FILLER_39_105
*1208 FILLER_39_111
*1209 FILLER_39_113
*1210 FILLER_39_125
*1211 FILLER_39_137
*1212 FILLER_39_149
*1213 FILLER_39_15
*1214 FILLER_39_161
*1215 FILLER_39_167
*1216 FILLER_39_169
*1217 FILLER_39_181
*1218 FILLER_39_193
*1219 FILLER_39_205
*1220 FILLER_39_217
*1221 FILLER_39_223
*1222 FILLER_39_225
*1223 FILLER_39_237
*1224 FILLER_39_249
*1225 FILLER_39_261
*1226 FILLER_39_27
*1227 FILLER_39_273
*1228 FILLER_39_279
*1229 FILLER_39_281
*1230 FILLER_39_293
*1231 FILLER_39_3
*1232 FILLER_39_39
*1233 FILLER_39_51
*1234 FILLER_39_55
*1235 FILLER_39_57
*1236 FILLER_39_69
*1237 FILLER_39_81
*1238 FILLER_39_93
*1239 FILLER_3_107
*1240 FILLER_3_111
*1241 FILLER_3_113
*1242 FILLER_3_125
*1243 FILLER_3_137
*1244 FILLER_3_149
*1245 FILLER_3_161
*1246 FILLER_3_167
*1247 FILLER_3_169
*1248 FILLER_3_181
*1249 FILLER_3_193
*1250 FILLER_3_205
*1251 FILLER_3_217
*1252 FILLER_3_223
*1253 FILLER_3_225
*1254 FILLER_3_237
*1255 FILLER_3_249
*1256 FILLER_3_25
*1257 FILLER_3_261
*1258 FILLER_3_273
*1259 FILLER_3_279
*1260 FILLER_3_281
*1261 FILLER_3_293
*1262 FILLER_3_3
*1263 FILLER_3_54
*1264 FILLER_3_57
*1265 FILLER_3_75
*1266 FILLER_3_95
*1267 FILLER_40_109
*1268 FILLER_40_121
*1269 FILLER_40_133
*1270 FILLER_40_139
*1271 FILLER_40_141
*1272 FILLER_40_15
*1273 FILLER_40_153
*1274 FILLER_40_165
*1275 FILLER_40_177
*1276 FILLER_40_189
*1277 FILLER_40_195
*1278 FILLER_40_197
*1279 FILLER_40_209
*1280 FILLER_40_221
*1281 FILLER_40_233
*1282 FILLER_40_245
*1283 FILLER_40_251
*1284 FILLER_40_253
*1285 FILLER_40_265
*1286 FILLER_40_27
*1287 FILLER_40_277
*1288 FILLER_40_289
*1289 FILLER_40_29
*1290 FILLER_40_297
*1291 FILLER_40_3
*1292 FILLER_40_41
*1293 FILLER_40_53
*1294 FILLER_40_65
*1295 FILLER_40_77
*1296 FILLER_40_83
*1297 FILLER_40_85
*1298 FILLER_40_97
*1299 FILLER_41_105
*1300 FILLER_41_111
*1301 FILLER_41_113
*1302 FILLER_41_125
*1303 FILLER_41_137
*1304 FILLER_41_149
*1305 FILLER_41_15
*1306 FILLER_41_157
*1307 FILLER_41_165
*1308 FILLER_41_169
*1309 FILLER_41_181
*1310 FILLER_41_193
*1311 FILLER_41_205
*1312 FILLER_41_217
*1313 FILLER_41_223
*1314 FILLER_41_225
*1315 FILLER_41_237
*1316 FILLER_41_249
*1317 FILLER_41_261
*1318 FILLER_41_27
*1319 FILLER_41_273
*1320 FILLER_41_279
*1321 FILLER_41_281
*1322 FILLER_41_293
*1323 FILLER_41_3
*1324 FILLER_41_31
*1325 FILLER_41_40
*1326 FILLER_41_52
*1327 FILLER_41_57
*1328 FILLER_41_69
*1329 FILLER_41_81
*1330 FILLER_41_93
*1331 FILLER_42_109
*1332 FILLER_42_121
*1333 FILLER_42_133
*1334 FILLER_42_139
*1335 FILLER_42_141
*1336 FILLER_42_15
*1337 FILLER_42_153
*1338 FILLER_42_165
*1339 FILLER_42_177
*1340 FILLER_42_189
*1341 FILLER_42_195
*1342 FILLER_42_197
*1343 FILLER_42_209
*1344 FILLER_42_221
*1345 FILLER_42_233
*1346 FILLER_42_245
*1347 FILLER_42_251
*1348 FILLER_42_253
*1349 FILLER_42_265
*1350 FILLER_42_27
*1351 FILLER_42_277
*1352 FILLER_42_289
*1353 FILLER_42_29
*1354 FILLER_42_297
*1355 FILLER_42_3
*1356 FILLER_42_42
*1357 FILLER_42_54
*1358 FILLER_42_70
*1359 FILLER_42_82
*1360 FILLER_42_85
*1361 FILLER_42_97
*1362 FILLER_43_100
*1363 FILLER_43_113
*1364 FILLER_43_125
*1365 FILLER_43_137
*1366 FILLER_43_149
*1367 FILLER_43_15
*1368 FILLER_43_161
*1369 FILLER_43_167
*1370 FILLER_43_169
*1371 FILLER_43_181
*1372 FILLER_43_190
*1373 FILLER_43_202
*1374 FILLER_43_214
*1375 FILLER_43_222
*1376 FILLER_43_225
*1377 FILLER_43_237
*1378 FILLER_43_249
*1379 FILLER_43_261
*1380 FILLER_43_27
*1381 FILLER_43_273
*1382 FILLER_43_279
*1383 FILLER_43_281
*1384 FILLER_43_293
*1385 FILLER_43_3
*1386 FILLER_43_39
*1387 FILLER_43_51
*1388 FILLER_43_55
*1389 FILLER_43_57
*1390 FILLER_43_64
*1391 FILLER_43_76
*1392 FILLER_43_88
*1393 FILLER_44_109
*1394 FILLER_44_121
*1395 FILLER_44_133
*1396 FILLER_44_139
*1397 FILLER_44_141
*1398 FILLER_44_15
*1399 FILLER_44_153
*1400 FILLER_44_165
*1401 FILLER_44_177
*1402 FILLER_44_189
*1403 FILLER_44_195
*1404 FILLER_44_197
*1405 FILLER_44_209
*1406 FILLER_44_221
*1407 FILLER_44_233
*1408 FILLER_44_245
*1409 FILLER_44_251
*1410 FILLER_44_253
*1411 FILLER_44_265
*1412 FILLER_44_27
*1413 FILLER_44_277
*1414 FILLER_44_289
*1415 FILLER_44_29
*1416 FILLER_44_297
*1417 FILLER_44_3
*1418 FILLER_44_41
*1419 FILLER_44_53
*1420 FILLER_44_65
*1421 FILLER_44_77
*1422 FILLER_44_83
*1423 FILLER_44_85
*1424 FILLER_44_97
*1425 FILLER_45_105
*1426 FILLER_45_111
*1427 FILLER_45_113
*1428 FILLER_45_125
*1429 FILLER_45_137
*1430 FILLER_45_149
*1431 FILLER_45_15
*1432 FILLER_45_161
*1433 FILLER_45_167
*1434 FILLER_45_169
*1435 FILLER_45_181
*1436 FILLER_45_193
*1437 FILLER_45_205
*1438 FILLER_45_217
*1439 FILLER_45_223
*1440 FILLER_45_225
*1441 FILLER_45_237
*1442 FILLER_45_249
*1443 FILLER_45_261
*1444 FILLER_45_27
*1445 FILLER_45_273
*1446 FILLER_45_279
*1447 FILLER_45_281
*1448 FILLER_45_293
*1449 FILLER_45_3
*1450 FILLER_45_39
*1451 FILLER_45_51
*1452 FILLER_45_55
*1453 FILLER_45_57
*1454 FILLER_45_69
*1455 FILLER_45_81
*1456 FILLER_45_93
*1457 FILLER_46_109
*1458 FILLER_46_121
*1459 FILLER_46_133
*1460 FILLER_46_139
*1461 FILLER_46_141
*1462 FILLER_46_15
*1463 FILLER_46_153
*1464 FILLER_46_165
*1465 FILLER_46_177
*1466 FILLER_46_189
*1467 FILLER_46_195
*1468 FILLER_46_197
*1469 FILLER_46_209
*1470 FILLER_46_221
*1471 FILLER_46_233
*1472 FILLER_46_245
*1473 FILLER_46_251
*1474 FILLER_46_253
*1475 FILLER_46_265
*1476 FILLER_46_27
*1477 FILLER_46_277
*1478 FILLER_46_289
*1479 FILLER_46_29
*1480 FILLER_46_297
*1481 FILLER_46_3
*1482 FILLER_46_37
*1483 FILLER_46_45
*1484 FILLER_46_57
*1485 FILLER_46_69
*1486 FILLER_46_81
*1487 FILLER_46_85
*1488 FILLER_46_97
*1489 FILLER_47_105
*1490 FILLER_47_111
*1491 FILLER_47_113
*1492 FILLER_47_125
*1493 FILLER_47_137
*1494 FILLER_47_149
*1495 FILLER_47_15
*1496 FILLER_47_161
*1497 FILLER_47_167
*1498 FILLER_47_169
*1499 FILLER_47_175
*1500 FILLER_47_182
*1501 FILLER_47_194
*1502 FILLER_47_206
*1503 FILLER_47_218
*1504 FILLER_47_225
*1505 FILLER_47_237
*1506 FILLER_47_249
*1507 FILLER_47_261
*1508 FILLER_47_27
*1509 FILLER_47_273
*1510 FILLER_47_279
*1511 FILLER_47_281
*1512 FILLER_47_293
*1513 FILLER_47_3
*1514 FILLER_47_39
*1515 FILLER_47_51
*1516 FILLER_47_55
*1517 FILLER_47_57
*1518 FILLER_47_69
*1519 FILLER_47_81
*1520 FILLER_47_93
*1521 FILLER_48_109
*1522 FILLER_48_121
*1523 FILLER_48_135
*1524 FILLER_48_139
*1525 FILLER_48_141
*1526 FILLER_48_15
*1527 FILLER_48_153
*1528 FILLER_48_164
*1529 FILLER_48_176
*1530 FILLER_48_188
*1531 FILLER_48_197
*1532 FILLER_48_209
*1533 FILLER_48_221
*1534 FILLER_48_233
*1535 FILLER_48_245
*1536 FILLER_48_251
*1537 FILLER_48_253
*1538 FILLER_48_265
*1539 FILLER_48_27
*1540 FILLER_48_277
*1541 FILLER_48_289
*1542 FILLER_48_29
*1543 FILLER_48_297
*1544 FILLER_48_3
*1545 FILLER_48_41
*1546 FILLER_48_50
*1547 FILLER_48_62
*1548 FILLER_48_74
*1549 FILLER_48_82
*1550 FILLER_48_85
*1551 FILLER_48_97
*1552 FILLER_49_105
*1553 FILLER_49_111
*1554 FILLER_49_113
*1555 FILLER_49_125
*1556 FILLER_49_137
*1557 FILLER_49_149
*1558 FILLER_49_15
*1559 FILLER_49_161
*1560 FILLER_49_167
*1561 FILLER_49_169
*1562 FILLER_49_181
*1563 FILLER_49_193
*1564 FILLER_49_205
*1565 FILLER_49_217
*1566 FILLER_49_223
*1567 FILLER_49_225
*1568 FILLER_49_237
*1569 FILLER_49_249
*1570 FILLER_49_261
*1571 FILLER_49_27
*1572 FILLER_49_273
*1573 FILLER_49_279
*1574 FILLER_49_281
*1575 FILLER_49_293
*1576 FILLER_49_3
*1577 FILLER_49_39
*1578 FILLER_49_51
*1579 FILLER_49_55
*1580 FILLER_49_57
*1581 FILLER_49_69
*1582 FILLER_49_81
*1583 FILLER_49_93
*1584 FILLER_4_109
*1585 FILLER_4_121
*1586 FILLER_4_133
*1587 FILLER_4_139
*1588 FILLER_4_141
*1589 FILLER_4_153
*1590 FILLER_4_165
*1591 FILLER_4_177
*1592 FILLER_4_189
*1593 FILLER_4_195
*1594 FILLER_4_197
*1595 FILLER_4_209
*1596 FILLER_4_221
*1597 FILLER_4_233
*1598 FILLER_4_245
*1599 FILLER_4_251
*1600 FILLER_4_253
*1601 FILLER_4_26
*1602 FILLER_4_265
*1603 FILLER_4_269
*1604 FILLER_4_281
*1605 FILLER_4_29
*1606 FILLER_4_293
*1607 FILLER_4_3
*1608 FILLER_4_41
*1609 FILLER_4_61
*1610 FILLER_4_81
*1611 FILLER_4_85
*1612 FILLER_4_9
*1613 FILLER_4_97