*SPEF "ieee 1481-1999"
*DESIGN "regymm_mcpi"
*DATE "11:11:11 Fri 11 11, 1111"
*VENDOR "OpenRCX"
*PROGRAM "Parallel Extraction"
*VERSION "1.0"
*DESIGN_FLOW "NAME_SCOPE LOCAL" "PIN_CAP NONE"
*DIVIDER /
*DELIMITER :
*BUS_DELIMITER []
*T_UNIT 1 NS
*C_UNIT 1 PF
*R_UNIT 1 OHM
*L_UNIT 1 HENRY

*NAME_MAP
*1 io_in[0]
*2 io_in[1]
*3 io_in[2]
*4 io_in[3]
*5 io_in[4]
*6 io_in[5]
*7 io_in[6]
*8 io_in[7]
*9 io_out[0]
*10 io_out[1]
*11 io_out[2]
*12 io_out[3]
*13 io_out[4]
*14 io_out[5]
*15 io_out[6]
*16 io_out[7]
*19 _000_
*20 _001_
*21 _002_
*22 _003_
*23 _004_
*24 _005_
*25 _006_
*26 _007_
*27 _008_
*28 _009_
*29 _010_
*30 _011_
*31 _012_
*32 _013_
*33 _014_
*34 _015_
*35 _016_
*36 _017_
*37 _018_
*38 _019_
*39 _020_
*40 _021_
*41 _022_
*42 _023_
*43 _024_
*44 _025_
*45 _026_
*46 _027_
*47 _028_
*48 _029_
*49 _030_
*50 _031_
*51 _032_
*52 _033_
*53 _034_
*54 _035_
*55 _036_
*56 _037_
*57 _038_
*58 _039_
*59 _040_
*60 _041_
*61 _042_
*62 _043_
*63 _044_
*64 _045_
*65 _046_
*66 _047_
*67 _048_
*68 _049_
*69 _050_
*70 _051_
*71 _052_
*72 _053_
*73 _054_
*74 _055_
*75 _056_
*76 _057_
*77 _058_
*78 _059_
*79 _060_
*80 _061_
*81 _062_
*82 _063_
*83 _064_
*84 _065_
*85 _066_
*86 _067_
*87 _068_
*88 _069_
*89 _070_
*90 _071_
*91 _072_
*92 _073_
*93 _074_
*94 _075_
*95 _076_
*96 _077_
*97 _078_
*98 _079_
*99 _080_
*100 _081_
*101 _082_
*102 _083_
*103 _084_
*104 _085_
*105 _086_
*106 _087_
*107 _088_
*108 _089_
*109 _090_
*110 _091_
*111 _092_
*112 _093_
*113 _094_
*114 _095_
*115 _096_
*116 _097_
*117 _098_
*118 _099_
*119 _100_
*120 _101_
*121 _102_
*122 _103_
*123 _104_
*124 _105_
*125 _106_
*126 _107_
*127 _108_
*128 _109_
*129 _110_
*130 _111_
*131 _112_
*132 _113_
*133 _114_
*134 _115_
*135 _116_
*136 _117_
*137 _118_
*138 _119_
*139 _120_
*140 _121_
*141 _122_
*142 _123_
*143 _124_
*144 _125_
*145 _126_
*146 _127_
*147 _128_
*148 _129_
*149 _130_
*150 _131_
*151 _132_
*152 _133_
*153 _134_
*154 _135_
*155 _136_
*156 _137_
*157 _138_
*158 _139_
*159 _140_
*160 _141_
*161 _142_
*162 _143_
*163 _144_
*164 _145_
*165 _146_
*166 _147_
*167 _148_
*168 _149_
*169 _150_
*170 _151_
*171 _152_
*172 _153_
*173 _154_
*174 _155_
*175 _156_
*176 _157_
*177 _158_
*178 _159_
*179 _160_
*180 _161_
*181 _162_
*182 _163_
*183 _164_
*184 _165_
*185 _166_
*186 _167_
*187 _168_
*188 _169_
*189 _170_
*190 _171_
*191 _172_
*192 _173_
*193 _174_
*194 _175_
*195 _176_
*196 _177_
*197 _178_
*198 _179_
*199 _180_
*200 _181_
*201 _182_
*202 _183_
*203 _184_
*204 _185_
*205 _186_
*206 _187_
*207 _188_
*208 _189_
*209 _190_
*210 _191_
*211 _192_
*212 _193_
*213 _194_
*214 _195_
*215 _196_
*216 _197_
*217 _198_
*218 _199_
*219 _200_
*220 _201_
*221 _202_
*222 _203_
*223 _204_
*224 _205_
*225 _206_
*226 _207_
*227 _208_
*228 _209_
*229 _210_
*230 _211_
*231 _212_
*232 _213_
*233 _214_
*234 _215_
*235 _216_
*236 _217_
*237 _218_
*238 _219_
*239 _220_
*240 _221_
*241 _222_
*242 _223_
*243 _224_
*244 _225_
*245 _226_
*246 _227_
*247 _228_
*248 _229_
*249 _230_
*250 _231_
*251 _232_
*252 _233_
*253 _234_
*254 _235_
*255 _236_
*256 _237_
*257 _238_
*258 _239_
*259 _240_
*260 _241_
*261 _242_
*262 _243_
*263 _244_
*264 _245_
*265 _246_
*266 _247_
*267 _248_
*268 _249_
*269 _250_
*270 _251_
*271 _252_
*272 _253_
*273 _254_
*274 _255_
*275 _256_
*276 _257_
*277 _258_
*278 _259_
*279 _260_
*280 _261_
*281 _262_
*282 _263_
*283 _264_
*284 _265_
*285 _266_
*286 _267_
*287 _268_
*288 _269_
*289 _270_
*290 _271_
*291 _272_
*292 breg2\[0\]
*293 breg2\[1\]
*294 breg2\[2\]
*295 breg2\[3\]
*296 breg2\[4\]
*297 breg2\[5\]
*298 breg2\[6\]
*299 breg2\[7\]
*300 breg\[0\]
*301 breg\[1\]
*302 breg\[2\]
*303 breg\[3\]
*304 breg\[4\]
*305 breg\[5\]
*306 breg\[6\]
*307 breg\[7\]
*308 breg\[8\]
*309 clknet_0_io_in[0]
*310 clknet_2_0__leaf_io_in[0]
*311 clknet_2_1__leaf_io_in[0]
*312 clknet_2_2__leaf_io_in[0]
*313 clknet_2_3__leaf_io_in[0]
*314 cnt\[0\]
*315 cnt\[1\]
*316 cnt\[2\]
*317 cnt\[3\]
*318 cnt\[4\]
*319 cnt\[5\]
*320 cnt\[6\]
*321 cnt\[7\]
*322 cnt_in\[0\]
*323 cnt_in\[1\]
*324 cnt_in\[2\]
*325 cnt_in\[3\]
*326 cnt_in\[4\]
*327 cnt_in\[5\]
*328 cnt_in\[6\]
*329 cnt_in\[7\]
*330 net1
*331 net2
*332 net3
*333 net4
*334 net5
*335 net6
*336 net7
*337 net8
*338 random\[0\]
*339 random\[1\]
*340 random\[2\]
*341 random\[3\]
*342 random\[4\]
*343 random\[5\]
*344 random\[6\]
*345 random\[7\]
*346 sts\[0\]
*347 sts\[1\]
*348 sts\[2\]
*349 sts\[3\]
*350 x\[0\]
*351 x\[1\]
*352 x\[2\]
*353 x\[3\]
*354 x\[4\]
*355 x\[5\]
*356 x\[6\]
*357 x\[7\]
*358 FILLER_0_109
*359 FILLER_0_113
*360 FILLER_0_125
*361 FILLER_0_137
*362 FILLER_0_141
*363 FILLER_0_15
*364 FILLER_0_153
*365 FILLER_0_165
*366 FILLER_0_169
*367 FILLER_0_181
*368 FILLER_0_193
*369 FILLER_0_197
*370 FILLER_0_209
*371 FILLER_0_221
*372 FILLER_0_225
*373 FILLER_0_237
*374 FILLER_0_249
*375 FILLER_0_253
*376 FILLER_0_265
*377 FILLER_0_27
*378 FILLER_0_277
*379 FILLER_0_281
*380 FILLER_0_29
*381 FILLER_0_293
*382 FILLER_0_3
*383 FILLER_0_41
*384 FILLER_0_53
*385 FILLER_0_57
*386 FILLER_0_69
*387 FILLER_0_81
*388 FILLER_0_85
*389 FILLER_0_97
*390 FILLER_10_104
*391 FILLER_10_115
*392 FILLER_10_127
*393 FILLER_10_139
*394 FILLER_10_141
*395 FILLER_10_153
*396 FILLER_10_165
*397 FILLER_10_177
*398 FILLER_10_189
*399 FILLER_10_195
*400 FILLER_10_197
*401 FILLER_10_209
*402 FILLER_10_21
*403 FILLER_10_221
*404 FILLER_10_233
*405 FILLER_10_245
*406 FILLER_10_251
*407 FILLER_10_253
*408 FILLER_10_265
*409 FILLER_10_27
*410 FILLER_10_277
*411 FILLER_10_289
*412 FILLER_10_29
*413 FILLER_10_297
*414 FILLER_10_3
*415 FILLER_10_34
*416 FILLER_10_54
*417 FILLER_10_75
*418 FILLER_10_82
*419 FILLER_10_85
*420 FILLER_10_92
*421 FILLER_10_96
*422 FILLER_11_100
*423 FILLER_11_104
*424 FILLER_11_110
*425 FILLER_11_113
*426 FILLER_11_122
*427 FILLER_11_134
*428 FILLER_11_146
*429 FILLER_11_158
*430 FILLER_11_166
*431 FILLER_11_169
*432 FILLER_11_18
*433 FILLER_11_181
*434 FILLER_11_193
*435 FILLER_11_205
*436 FILLER_11_217
*437 FILLER_11_223
*438 FILLER_11_225
*439 FILLER_11_237
*440 FILLER_11_249
*441 FILLER_11_261
*442 FILLER_11_273
*443 FILLER_11_279
*444 FILLER_11_281
*445 FILLER_11_293
*446 FILLER_11_3
*447 FILLER_11_38
*448 FILLER_11_51
*449 FILLER_11_55
*450 FILLER_11_57
*451 FILLER_11_68
*452 FILLER_11_80
*453 FILLER_11_93
*454 FILLER_12_103
*455 FILLER_12_110
*456 FILLER_12_12
*457 FILLER_12_125
*458 FILLER_12_137
*459 FILLER_12_141
*460 FILLER_12_153
*461 FILLER_12_165
*462 FILLER_12_177
*463 FILLER_12_189
*464 FILLER_12_195
*465 FILLER_12_197
*466 FILLER_12_209
*467 FILLER_12_221
*468 FILLER_12_233
*469 FILLER_12_24
*470 FILLER_12_245
*471 FILLER_12_251
*472 FILLER_12_253
*473 FILLER_12_265
*474 FILLER_12_277
*475 FILLER_12_289
*476 FILLER_12_29
*477 FILLER_12_297
*478 FILLER_12_3
*479 FILLER_12_37
*480 FILLER_12_48
*481 FILLER_12_56
*482 FILLER_12_65
*483 FILLER_12_78
*484 FILLER_12_85
*485 FILLER_12_95
*486 FILLER_13_110
*487 FILLER_13_113
*488 FILLER_13_121
*489 FILLER_13_133
*490 FILLER_13_14
*491 FILLER_13_145
*492 FILLER_13_157
*493 FILLER_13_165
*494 FILLER_13_169
*495 FILLER_13_181
*496 FILLER_13_193
*497 FILLER_13_205
*498 FILLER_13_217
*499 FILLER_13_223
*500 FILLER_13_225
*501 FILLER_13_237
*502 FILLER_13_24
*503 FILLER_13_249
*504 FILLER_13_261
*505 FILLER_13_273
*506 FILLER_13_279
*507 FILLER_13_281
*508 FILLER_13_293
*509 FILLER_13_3
*510 FILLER_13_41
*511 FILLER_13_54
*512 FILLER_13_57
*513 FILLER_13_64
*514 FILLER_13_73
*515 FILLER_13_8
*516 FILLER_13_80
*517 FILLER_13_98
*518 FILLER_14_107
*519 FILLER_14_113
*520 FILLER_14_120
*521 FILLER_14_132
*522 FILLER_14_141
*523 FILLER_14_153
*524 FILLER_14_165
*525 FILLER_14_177
*526 FILLER_14_189
*527 FILLER_14_195
*528 FILLER_14_197
*529 FILLER_14_209
*530 FILLER_14_221
*531 FILLER_14_233
*532 FILLER_14_245
*533 FILLER_14_251
*534 FILLER_14_253
*535 FILLER_14_26
*536 FILLER_14_265
*537 FILLER_14_277
*538 FILLER_14_289
*539 FILLER_14_29
*540 FILLER_14_297
*541 FILLER_14_3
*542 FILLER_14_34
*543 FILLER_14_49
*544 FILLER_14_55
*545 FILLER_14_63
*546 FILLER_14_72
*547 FILLER_14_79
*548 FILLER_14_83
*549 FILLER_14_85
*550 FILLER_14_9
*551 FILLER_14_90
*552 FILLER_15_106
*553 FILLER_15_11
*554 FILLER_15_110
*555 FILLER_15_113
*556 FILLER_15_122
*557 FILLER_15_129
*558 FILLER_15_141
*559 FILLER_15_153
*560 FILLER_15_165
*561 FILLER_15_169
*562 FILLER_15_17
*563 FILLER_15_181
*564 FILLER_15_193
*565 FILLER_15_205
*566 FILLER_15_217
*567 FILLER_15_223
*568 FILLER_15_225
*569 FILLER_15_237
*570 FILLER_15_249
*571 FILLER_15_25
*572 FILLER_15_261
*573 FILLER_15_273
*574 FILLER_15_279
*575 FILLER_15_281
*576 FILLER_15_293
*577 FILLER_15_3
*578 FILLER_15_42
*579 FILLER_15_52
*580 FILLER_15_57
*581 FILLER_15_64
*582 FILLER_15_68
*583 FILLER_15_77
*584 FILLER_15_88
*585 FILLER_15_98
*586 FILLER_16_106
*587 FILLER_16_110
*588 FILLER_16_118
*589 FILLER_16_127
*590 FILLER_16_139
*591 FILLER_16_141
*592 FILLER_16_15
*593 FILLER_16_153
*594 FILLER_16_165
*595 FILLER_16_177
*596 FILLER_16_189
*597 FILLER_16_195
*598 FILLER_16_197
*599 FILLER_16_209
*600 FILLER_16_221
*601 FILLER_16_233
*602 FILLER_16_245
*603 FILLER_16_251
*604 FILLER_16_253
*605 FILLER_16_265
*606 FILLER_16_27
*607 FILLER_16_277
*608 FILLER_16_289
*609 FILLER_16_29
*610 FILLER_16_297
*611 FILLER_16_3
*612 FILLER_16_41
*613 FILLER_16_65
*614 FILLER_16_73
*615 FILLER_16_82
*616 FILLER_16_85
*617 FILLER_16_98
*618 FILLER_17_106
*619 FILLER_17_110
*620 FILLER_17_113
*621 FILLER_17_120
*622 FILLER_17_132
*623 FILLER_17_144
*624 FILLER_17_15
*625 FILLER_17_156
*626 FILLER_17_169
*627 FILLER_17_181
*628 FILLER_17_193
*629 FILLER_17_205
*630 FILLER_17_217
*631 FILLER_17_223
*632 FILLER_17_225
*633 FILLER_17_237
*634 FILLER_17_249
*635 FILLER_17_261
*636 FILLER_17_273
*637 FILLER_17_279
*638 FILLER_17_281
*639 FILLER_17_293
*640 FILLER_17_3
*641 FILLER_17_36
*642 FILLER_17_40
*643 FILLER_17_50
*644 FILLER_17_57
*645 FILLER_17_67
*646 FILLER_17_76
*647 FILLER_17_82
*648 FILLER_17_86
*649 FILLER_17_98
*650 FILLER_18_105
*651 FILLER_18_109
*652 FILLER_18_117
*653 FILLER_18_129
*654 FILLER_18_137
*655 FILLER_18_141
*656 FILLER_18_15
*657 FILLER_18_153
*658 FILLER_18_165
*659 FILLER_18_177
*660 FILLER_18_189
*661 FILLER_18_195
*662 FILLER_18_197
*663 FILLER_18_209
*664 FILLER_18_221
*665 FILLER_18_233
*666 FILLER_18_245
*667 FILLER_18_251
*668 FILLER_18_253
*669 FILLER_18_265
*670 FILLER_18_27
*671 FILLER_18_277
*672 FILLER_18_289
*673 FILLER_18_29
*674 FILLER_18_297
*675 FILLER_18_3
*676 FILLER_18_37
*677 FILLER_18_53
*678 FILLER_18_61
*679 FILLER_18_69
*680 FILLER_18_80
*681 FILLER_18_85
*682 FILLER_18_94
*683 FILLER_19_105
*684 FILLER_19_111
*685 FILLER_19_113
*686 FILLER_19_125
*687 FILLER_19_137
*688 FILLER_19_149
*689 FILLER_19_15
*690 FILLER_19_161
*691 FILLER_19_167
*692 FILLER_19_169
*693 FILLER_19_181
*694 FILLER_19_193
*695 FILLER_19_205
*696 FILLER_19_217
*697 FILLER_19_223
*698 FILLER_19_225
*699 FILLER_19_237
*700 FILLER_19_249
*701 FILLER_19_261
*702 FILLER_19_27
*703 FILLER_19_273
*704 FILLER_19_279
*705 FILLER_19_281
*706 FILLER_19_293
*707 FILLER_19_3
*708 FILLER_19_48
*709 FILLER_19_57
*710 FILLER_19_70
*711 FILLER_19_78
*712 FILLER_19_98
*713 FILLER_1_105
*714 FILLER_1_111
*715 FILLER_1_113
*716 FILLER_1_125
*717 FILLER_1_137
*718 FILLER_1_149
*719 FILLER_1_15
*720 FILLER_1_161
*721 FILLER_1_167
*722 FILLER_1_169
*723 FILLER_1_181
*724 FILLER_1_193
*725 FILLER_1_205
*726 FILLER_1_217
*727 FILLER_1_223
*728 FILLER_1_225
*729 FILLER_1_237
*730 FILLER_1_249
*731 FILLER_1_261
*732 FILLER_1_27
*733 FILLER_1_273
*734 FILLER_1_279
*735 FILLER_1_281
*736 FILLER_1_293
*737 FILLER_1_3
*738 FILLER_1_39
*739 FILLER_1_51
*740 FILLER_1_55
*741 FILLER_1_57
*742 FILLER_1_69
*743 FILLER_1_81
*744 FILLER_1_93
*745 FILLER_20_118
*746 FILLER_20_130
*747 FILLER_20_138
*748 FILLER_20_141
*749 FILLER_20_15
*750 FILLER_20_153
*751 FILLER_20_165
*752 FILLER_20_177
*753 FILLER_20_189
*754 FILLER_20_195
*755 FILLER_20_197
*756 FILLER_20_209
*757 FILLER_20_221
*758 FILLER_20_233
*759 FILLER_20_245
*760 FILLER_20_251
*761 FILLER_20_253
*762 FILLER_20_265
*763 FILLER_20_27
*764 FILLER_20_277
*765 FILLER_20_289
*766 FILLER_20_29
*767 FILLER_20_297
*768 FILLER_20_3
*769 FILLER_20_33
*770 FILLER_20_37
*771 FILLER_20_44
*772 FILLER_20_51
*773 FILLER_20_71
*774 FILLER_20_81
*775 FILLER_20_85
*776 FILLER_20_90
*777 FILLER_21_110
*778 FILLER_21_113
*779 FILLER_21_124
*780 FILLER_21_136
*781 FILLER_21_148
*782 FILLER_21_15
*783 FILLER_21_160
*784 FILLER_21_169
*785 FILLER_21_181
*786 FILLER_21_193
*787 FILLER_21_205
*788 FILLER_21_217
*789 FILLER_21_223
*790 FILLER_21_225
*791 FILLER_21_237
*792 FILLER_21_249
*793 FILLER_21_261
*794 FILLER_21_27
*795 FILLER_21_273
*796 FILLER_21_279
*797 FILLER_21_281
*798 FILLER_21_293
*799 FILLER_21_3
*800 FILLER_21_49
*801 FILLER_21_55
*802 FILLER_21_57
*803 FILLER_21_74
*804 FILLER_21_81
*805 FILLER_21_85
*806 FILLER_21_95
*807 FILLER_22_102
*808 FILLER_22_114
*809 FILLER_22_124
*810 FILLER_22_132
*811 FILLER_22_141
*812 FILLER_22_15
*813 FILLER_22_153
*814 FILLER_22_165
*815 FILLER_22_177
*816 FILLER_22_189
*817 FILLER_22_195
*818 FILLER_22_197
*819 FILLER_22_209
*820 FILLER_22_221
*821 FILLER_22_233
*822 FILLER_22_245
*823 FILLER_22_251
*824 FILLER_22_253
*825 FILLER_22_265
*826 FILLER_22_27
*827 FILLER_22_277
*828 FILLER_22_289
*829 FILLER_22_29
*830 FILLER_22_297
*831 FILLER_22_3
*832 FILLER_22_35
*833 FILLER_22_39
*834 FILLER_22_52
*835 FILLER_22_56
*836 FILLER_22_62
*837 FILLER_22_73
*838 FILLER_22_82
*839 FILLER_22_85
*840 FILLER_22_91
*841 FILLER_23_105
*842 FILLER_23_111
*843 FILLER_23_113
*844 FILLER_23_124
*845 FILLER_23_135
*846 FILLER_23_142
*847 FILLER_23_15
*848 FILLER_23_154
*849 FILLER_23_166
*850 FILLER_23_169
*851 FILLER_23_181
*852 FILLER_23_193
*853 FILLER_23_205
*854 FILLER_23_217
*855 FILLER_23_223
*856 FILLER_23_225
*857 FILLER_23_237
*858 FILLER_23_24
*859 FILLER_23_249
*860 FILLER_23_261
*861 FILLER_23_273
*862 FILLER_23_279
*863 FILLER_23_281
*864 FILLER_23_293
*865 FILLER_23_3
*866 FILLER_23_31
*867 FILLER_23_38
*868 FILLER_23_42
*869 FILLER_23_46
*870 FILLER_23_54
*871 FILLER_23_57
*872 FILLER_23_66
*873 FILLER_23_74
*874 FILLER_23_80
*875 FILLER_23_94
*876 FILLER_24_102
*877 FILLER_24_106
*878 FILLER_24_11
*879 FILLER_24_117
*880 FILLER_24_128
*881 FILLER_24_136
*882 FILLER_24_141
*883 FILLER_24_153
*884 FILLER_24_165
*885 FILLER_24_177
*886 FILLER_24_18
*887 FILLER_24_189
*888 FILLER_24_195
*889 FILLER_24_197
*890 FILLER_24_209
*891 FILLER_24_221
*892 FILLER_24_233
*893 FILLER_24_245
*894 FILLER_24_251
*895 FILLER_24_253
*896 FILLER_24_26
*897 FILLER_24_265
*898 FILLER_24_277
*899 FILLER_24_289
*900 FILLER_24_29
*901 FILLER_24_297
*902 FILLER_24_3
*903 FILLER_24_33
*904 FILLER_24_50
*905 FILLER_24_63
*906 FILLER_24_67
*907 FILLER_24_7
*908 FILLER_24_72
*909 FILLER_24_80
*910 FILLER_24_85
*911 FILLER_24_94
*912 FILLER_25_104
*913 FILLER_25_108
*914 FILLER_25_113
*915 FILLER_25_124
*916 FILLER_25_136
*917 FILLER_25_148
*918 FILLER_25_160
*919 FILLER_25_169
*920 FILLER_25_181
*921 FILLER_25_193
*922 FILLER_25_205
*923 FILLER_25_217
*924 FILLER_25_223
*925 FILLER_25_225
*926 FILLER_25_237
*927 FILLER_25_249
*928 FILLER_25_261
*929 FILLER_25_273
*930 FILLER_25_279
*931 FILLER_25_281
*932 FILLER_25_293
*933 FILLER_25_3
*934 FILLER_25_31
*935 FILLER_25_43
*936 FILLER_25_54
*937 FILLER_25_57
*938 FILLER_25_64
*939 FILLER_25_77
*940 FILLER_25_84
*941 FILLER_25_9
*942 FILLER_25_91
*943 FILLER_25_98
*944 FILLER_26_100
*945 FILLER_26_117
*946 FILLER_26_132
*947 FILLER_26_141
*948 FILLER_26_15
*949 FILLER_26_153
*950 FILLER_26_165
*951 FILLER_26_177
*952 FILLER_26_189
*953 FILLER_26_195
*954 FILLER_26_197
*955 FILLER_26_20
*956 FILLER_26_209
*957 FILLER_26_221
*958 FILLER_26_233
*959 FILLER_26_245
*960 FILLER_26_251
*961 FILLER_26_253
*962 FILLER_26_265
*963 FILLER_26_277
*964 FILLER_26_289
*965 FILLER_26_29
*966 FILLER_26_297
*967 FILLER_26_3
*968 FILLER_26_39
*969 FILLER_26_48
*970 FILLER_26_59
*971 FILLER_26_79
*972 FILLER_26_83
*973 FILLER_26_85
*974 FILLER_26_9
*975 FILLER_26_96
*976 FILLER_27_11
*977 FILLER_27_110
*978 FILLER_27_113
*979 FILLER_27_118
*980 FILLER_27_133
*981 FILLER_27_145
*982 FILLER_27_157
*983 FILLER_27_165
*984 FILLER_27_169
*985 FILLER_27_181
*986 FILLER_27_19
*987 FILLER_27_193
*988 FILLER_27_205
*989 FILLER_27_217
*990 FILLER_27_223
*991 FILLER_27_225
*992 FILLER_27_237
*993 FILLER_27_249
*994 FILLER_27_261
*995 FILLER_27_27
*996 FILLER_27_273
*997 FILLER_27_279
*998 FILLER_27_281
*999 FILLER_27_293
*1000 FILLER_27_3
*1001 FILLER_27_40
*1002 FILLER_27_53
*1003 FILLER_27_57
*1004 FILLER_27_79
*1005 FILLER_27_99
*1006 FILLER_28_100
*1007 FILLER_28_117
*1008 FILLER_28_124
*1009 FILLER_28_131
*1010 FILLER_28_139
*1011 FILLER_28_141
*1012 FILLER_28_153
*1013 FILLER_28_165
*1014 FILLER_28_177
*1015 FILLER_28_189
*1016 FILLER_28_195
*1017 FILLER_28_197
*1018 FILLER_28_209
*1019 FILLER_28_221
*1020 FILLER_28_233
*1021 FILLER_28_245
*1022 FILLER_28_251
*1023 FILLER_28_253
*1024 FILLER_28_26
*1025 FILLER_28_265
*1026 FILLER_28_277
*1027 FILLER_28_289
*1028 FILLER_28_29
*1029 FILLER_28_297
*1030 FILLER_28_3
*1031 FILLER_28_39
*1032 FILLER_28_45
*1033 FILLER_28_55
*1034 FILLER_28_66
*1035 FILLER_28_74
*1036 FILLER_28_82
*1037 FILLER_28_85
*1038 FILLER_28_9
*1039 FILLER_28_94
*1040 FILLER_29_106
*1041 FILLER_29_11
*1042 FILLER_29_113
*1043 FILLER_29_124
*1044 FILLER_29_135
*1045 FILLER_29_147
*1046 FILLER_29_159
*1047 FILLER_29_167
*1048 FILLER_29_169
*1049 FILLER_29_181
*1050 FILLER_29_193
*1051 FILLER_29_20
*1052 FILLER_29_205
*1053 FILLER_29_217
*1054 FILLER_29_223
*1055 FILLER_29_225
*1056 FILLER_29_237
*1057 FILLER_29_249
*1058 FILLER_29_26
*1059 FILLER_29_261
*1060 FILLER_29_273
*1061 FILLER_29_279
*1062 FILLER_29_281
*1063 FILLER_29_293
*1064 FILLER_29_3
*1065 FILLER_29_31
*1066 FILLER_29_40
*1067 FILLER_29_54
*1068 FILLER_29_57
*1069 FILLER_29_66
*1070 FILLER_29_79
*1071 FILLER_29_87
*1072 FILLER_29_97
*1073 FILLER_2_109
*1074 FILLER_2_121
*1075 FILLER_2_133
*1076 FILLER_2_139
*1077 FILLER_2_141
*1078 FILLER_2_15
*1079 FILLER_2_153
*1080 FILLER_2_165
*1081 FILLER_2_177
*1082 FILLER_2_189
*1083 FILLER_2_195
*1084 FILLER_2_197
*1085 FILLER_2_209
*1086 FILLER_2_221
*1087 FILLER_2_233
*1088 FILLER_2_245
*1089 FILLER_2_251
*1090 FILLER_2_253
*1091 FILLER_2_265
*1092 FILLER_2_27
*1093 FILLER_2_277
*1094 FILLER_2_289
*1095 FILLER_2_29
*1096 FILLER_2_297
*1097 FILLER_2_3
*1098 FILLER_2_41
*1099 FILLER_2_53
*1100 FILLER_2_65
*1101 FILLER_2_77
*1102 FILLER_2_83
*1103 FILLER_2_85
*1104 FILLER_2_97
*1105 FILLER_30_103
*1106 FILLER_30_110
*1107 FILLER_30_122
*1108 FILLER_30_13
*1109 FILLER_30_134
*1110 FILLER_30_141
*1111 FILLER_30_153
*1112 FILLER_30_165
*1113 FILLER_30_177
*1114 FILLER_30_189
*1115 FILLER_30_195
*1116 FILLER_30_197
*1117 FILLER_30_209
*1118 FILLER_30_21
*1119 FILLER_30_221
*1120 FILLER_30_233
*1121 FILLER_30_245
*1122 FILLER_30_251
*1123 FILLER_30_253
*1124 FILLER_30_265
*1125 FILLER_30_27
*1126 FILLER_30_277
*1127 FILLER_30_289
*1128 FILLER_30_29
*1129 FILLER_30_297
*1130 FILLER_30_3
*1131 FILLER_30_41
*1132 FILLER_30_65
*1133 FILLER_30_78
*1134 FILLER_30_85
*1135 FILLER_31_110
*1136 FILLER_31_113
*1137 FILLER_31_121
*1138 FILLER_31_130
*1139 FILLER_31_140
*1140 FILLER_31_152
*1141 FILLER_31_164
*1142 FILLER_31_169
*1143 FILLER_31_181
*1144 FILLER_31_193
*1145 FILLER_31_205
*1146 FILLER_31_217
*1147 FILLER_31_223
*1148 FILLER_31_225
*1149 FILLER_31_237
*1150 FILLER_31_249
*1151 FILLER_31_26
*1152 FILLER_31_261
*1153 FILLER_31_273
*1154 FILLER_31_279
*1155 FILLER_31_281
*1156 FILLER_31_293
*1157 FILLER_31_3
*1158 FILLER_31_30
*1159 FILLER_31_48
*1160 FILLER_31_57
*1161 FILLER_31_68
*1162 FILLER_31_79
*1163 FILLER_31_9
*1164 FILLER_31_90
*1165 FILLER_32_10
*1166 FILLER_32_101
*1167 FILLER_32_114
*1168 FILLER_32_122
*1169 FILLER_32_132
*1170 FILLER_32_14
*1171 FILLER_32_141
*1172 FILLER_32_153
*1173 FILLER_32_165
*1174 FILLER_32_177
*1175 FILLER_32_189
*1176 FILLER_32_195
*1177 FILLER_32_197
*1178 FILLER_32_209
*1179 FILLER_32_21
*1180 FILLER_32_221
*1181 FILLER_32_233
*1182 FILLER_32_245
*1183 FILLER_32_251
*1184 FILLER_32_253
*1185 FILLER_32_265
*1186 FILLER_32_27
*1187 FILLER_32_277
*1188 FILLER_32_289
*1189 FILLER_32_29
*1190 FILLER_32_297
*1191 FILLER_32_3
*1192 FILLER_32_34
*1193 FILLER_32_41
*1194 FILLER_32_65
*1195 FILLER_32_69
*1196 FILLER_32_77
*1197 FILLER_32_83
*1198 FILLER_32_85
*1199 FILLER_32_94
*1200 FILLER_33_107
*1201 FILLER_33_111
*1202 FILLER_33_113
*1203 FILLER_33_12
*1204 FILLER_33_121
*1205 FILLER_33_134
*1206 FILLER_33_142
*1207 FILLER_33_154
*1208 FILLER_33_166
*1209 FILLER_33_169
*1210 FILLER_33_181
*1211 FILLER_33_193
*1212 FILLER_33_20
*1213 FILLER_33_205
*1214 FILLER_33_217
*1215 FILLER_33_223
*1216 FILLER_33_225
*1217 FILLER_33_237
*1218 FILLER_33_24
*1219 FILLER_33_249
*1220 FILLER_33_261
*1221 FILLER_33_273
*1222 FILLER_33_279
*1223 FILLER_33_28
*1224 FILLER_33_281
*1225 FILLER_33_293
*1226 FILLER_33_3
*1227 FILLER_33_48
*1228 FILLER_33_57
*1229 FILLER_33_69
*1230 FILLER_33_79
*1231 FILLER_33_83
*1232 FILLER_33_93
*1233 FILLER_34_104
*1234 FILLER_34_111
*1235 FILLER_34_12
*1236 FILLER_34_122
*1237 FILLER_34_131
*1238 FILLER_34_139
*1239 FILLER_34_141
*1240 FILLER_34_153
*1241 FILLER_34_165
*1242 FILLER_34_177
*1243 FILLER_34_189
*1244 FILLER_34_195
*1245 FILLER_34_197
*1246 FILLER_34_209
*1247 FILLER_34_21
*1248 FILLER_34_221
*1249 FILLER_34_233
*1250 FILLER_34_245
*1251 FILLER_34_251
*1252 FILLER_34_253
*1253 FILLER_34_265
*1254 FILLER_34_27
*1255 FILLER_34_277
*1256 FILLER_34_289
*1257 FILLER_34_29
*1258 FILLER_34_297
*1259 FILLER_34_3
*1260 FILLER_34_38
*1261 FILLER_34_45
*1262 FILLER_34_65
*1263 FILLER_34_71
*1264 FILLER_34_79
*1265 FILLER_34_83
*1266 FILLER_34_85
*1267 FILLER_34_91
*1268 FILLER_34_98
*1269 FILLER_35_104
*1270 FILLER_35_11
*1271 FILLER_35_113
*1272 FILLER_35_124
*1273 FILLER_35_136
*1274 FILLER_35_148
*1275 FILLER_35_160
*1276 FILLER_35_169
*1277 FILLER_35_181
*1278 FILLER_35_193
*1279 FILLER_35_205
*1280 FILLER_35_217
*1281 FILLER_35_223
*1282 FILLER_35_225
*1283 FILLER_35_237
*1284 FILLER_35_249
*1285 FILLER_35_261
*1286 FILLER_35_273
*1287 FILLER_35_279
*1288 FILLER_35_281
*1289 FILLER_35_29
*1290 FILLER_35_293
*1291 FILLER_35_3
*1292 FILLER_35_41
*1293 FILLER_35_49
*1294 FILLER_35_55
*1295 FILLER_35_57
*1296 FILLER_35_70
*1297 FILLER_35_81
*1298 FILLER_35_88
*1299 FILLER_35_97
*1300 FILLER_36_100
*1301 FILLER_36_11
*1302 FILLER_36_120
*1303 FILLER_36_132
*1304 FILLER_36_141
*1305 FILLER_36_153
*1306 FILLER_36_165
*1307 FILLER_36_177
*1308 FILLER_36_18
*1309 FILLER_36_189
*1310 FILLER_36_195
*1311 FILLER_36_197
*1312 FILLER_36_209
*1313 FILLER_36_221
*1314 FILLER_36_233
*1315 FILLER_36_245
*1316 FILLER_36_251
*1317 FILLER_36_253
*1318 FILLER_36_26
*1319 FILLER_36_265
*1320 FILLER_36_277
*1321 FILLER_36_289
*1322 FILLER_36_29
*1323 FILLER_36_297
*1324 FILLER_36_3
*1325 FILLER_36_37
*1326 FILLER_36_43
*1327 FILLER_36_51
*1328 FILLER_36_69
*1329 FILLER_36_73
*1330 FILLER_36_80
*1331 FILLER_36_85
*1332 FILLER_37_104
*1333 FILLER_37_113
*1334 FILLER_37_118
*1335 FILLER_37_13
*1336 FILLER_37_130
*1337 FILLER_37_142
*1338 FILLER_37_154
*1339 FILLER_37_166
*1340 FILLER_37_169
*1341 FILLER_37_181
*1342 FILLER_37_193
*1343 FILLER_37_205
*1344 FILLER_37_21
*1345 FILLER_37_217
*1346 FILLER_37_223
*1347 FILLER_37_225
*1348 FILLER_37_237
*1349 FILLER_37_249
*1350 FILLER_37_261
*1351 FILLER_37_273
*1352 FILLER_37_279
*1353 FILLER_37_28
*1354 FILLER_37_281
*1355 FILLER_37_293
*1356 FILLER_37_3
*1357 FILLER_37_42
*1358 FILLER_37_54
*1359 FILLER_37_57
*1360 FILLER_37_62
*1361 FILLER_37_75
*1362 FILLER_37_81
*1363 FILLER_37_91
*1364 FILLER_38_103
*1365 FILLER_38_110
*1366 FILLER_38_122
*1367 FILLER_38_134
*1368 FILLER_38_141
*1369 FILLER_38_153
*1370 FILLER_38_165
*1371 FILLER_38_177
*1372 FILLER_38_189
*1373 FILLER_38_195
*1374 FILLER_38_197
*1375 FILLER_38_209
*1376 FILLER_38_21
*1377 FILLER_38_221
*1378 FILLER_38_233
*1379 FILLER_38_245
*1380 FILLER_38_251
*1381 FILLER_38_253
*1382 FILLER_38_265
*1383 FILLER_38_27
*1384 FILLER_38_277
*1385 FILLER_38_289
*1386 FILLER_38_29
*1387 FILLER_38_297
*1388 FILLER_38_3
*1389 FILLER_38_47
*1390 FILLER_38_59
*1391 FILLER_38_65
*1392 FILLER_38_82
*1393 FILLER_38_85
*1394 FILLER_39_10
*1395 FILLER_39_110
*1396 FILLER_39_113
*1397 FILLER_39_125
*1398 FILLER_39_137
*1399 FILLER_39_149
*1400 FILLER_39_161
*1401 FILLER_39_167
*1402 FILLER_39_169
*1403 FILLER_39_181
*1404 FILLER_39_19
*1405 FILLER_39_193
*1406 FILLER_39_205
*1407 FILLER_39_217
*1408 FILLER_39_223
*1409 FILLER_39_225
*1410 FILLER_39_237
*1411 FILLER_39_249
*1412 FILLER_39_261
*1413 FILLER_39_273
*1414 FILLER_39_279
*1415 FILLER_39_281
*1416 FILLER_39_293
*1417 FILLER_39_3
*1418 FILLER_39_31
*1419 FILLER_39_43
*1420 FILLER_39_47
*1421 FILLER_39_52
*1422 FILLER_39_57
*1423 FILLER_39_65
*1424 FILLER_39_72
*1425 FILLER_39_81
*1426 FILLER_39_88
*1427 FILLER_3_107
*1428 FILLER_3_11
*1429 FILLER_3_111
*1430 FILLER_3_113
*1431 FILLER_3_125
*1432 FILLER_3_137
*1433 FILLER_3_149
*1434 FILLER_3_161
*1435 FILLER_3_167
*1436 FILLER_3_169
*1437 FILLER_3_181
*1438 FILLER_3_193
*1439 FILLER_3_205
*1440 FILLER_3_217
*1441 FILLER_3_223
*1442 FILLER_3_225
*1443 FILLER_3_23
*1444 FILLER_3_237
*1445 FILLER_3_249
*1446 FILLER_3_261
*1447 FILLER_3_273
*1448 FILLER_3_279
*1449 FILLER_3_281
*1450 FILLER_3_293
*1451 FILLER_3_3
*1452 FILLER_3_35
*1453 FILLER_3_54
*1454 FILLER_3_57
*1455 FILLER_3_61
*1456 FILLER_3_71
*1457 FILLER_3_83
*1458 FILLER_3_95
*1459 FILLER_40_109
*1460 FILLER_40_121
*1461 FILLER_40_133
*1462 FILLER_40_139
*1463 FILLER_40_141
*1464 FILLER_40_153
*1465 FILLER_40_165
*1466 FILLER_40_177
*1467 FILLER_40_189
*1468 FILLER_40_195
*1469 FILLER_40_197
*1470 FILLER_40_209
*1471 FILLER_40_21
*1472 FILLER_40_221
*1473 FILLER_40_233
*1474 FILLER_40_245
*1475 FILLER_40_251
*1476 FILLER_40_253
*1477 FILLER_40_265
*1478 FILLER_40_27
*1479 FILLER_40_277
*1480 FILLER_40_289
*1481 FILLER_40_29
*1482 FILLER_40_297
*1483 FILLER_40_3
*1484 FILLER_40_38
*1485 FILLER_40_45
*1486 FILLER_40_65
*1487 FILLER_40_77
*1488 FILLER_40_83
*1489 FILLER_40_85
*1490 FILLER_40_97
*1491 FILLER_41_111
*1492 FILLER_41_113
*1493 FILLER_41_125
*1494 FILLER_41_13
*1495 FILLER_41_137
*1496 FILLER_41_149
*1497 FILLER_41_161
*1498 FILLER_41_167
*1499 FILLER_41_169
*1500 FILLER_41_181
*1501 FILLER_41_193
*1502 FILLER_41_205
*1503 FILLER_41_217
*1504 FILLER_41_223
*1505 FILLER_41_225
*1506 FILLER_41_237
*1507 FILLER_41_249
*1508 FILLER_41_261
*1509 FILLER_41_273
*1510 FILLER_41_279
*1511 FILLER_41_281
*1512 FILLER_41_293
*1513 FILLER_41_3
*1514 FILLER_41_33
*1515 FILLER_41_41
*1516 FILLER_41_49
*1517 FILLER_41_55
*1518 FILLER_41_57
*1519 FILLER_41_63
*1520 FILLER_41_75
*1521 FILLER_41_87
*1522 FILLER_41_99
*1523 FILLER_42_109
*1524 FILLER_42_121
*1525 FILLER_42_13
*1526 FILLER_42_133
*1527 FILLER_42_139
*1528 FILLER_42_141
*1529 FILLER_42_153
*1530 FILLER_42_165
*1531 FILLER_42_177
*1532 FILLER_42_189
*1533 FILLER_42_195
*1534 FILLER_42_197
*1535 FILLER_42_209
*1536 FILLER_42_21
*1537 FILLER_42_221
*1538 FILLER_42_233
*1539 FILLER_42_245
*1540 FILLER_42_251
*1541 FILLER_42_253
*1542 FILLER_42_26
*1543 FILLER_42_265
*1544 FILLER_42_277
*1545 FILLER_42_289
*1546 FILLER_42_29
*1547 FILLER_42_297
*1548 FILLER_42_3
*1549 FILLER_42_36
*1550 FILLER_42_40
*1551 FILLER_42_57
*1552 FILLER_42_69
*1553 FILLER_42_81
*1554 FILLER_42_85
*1555 FILLER_42_97
*1556 FILLER_43_11
*1557 FILLER_43_110
*1558 FILLER_43_113
*1559 FILLER_43_125
*1560 FILLER_43_137
*1561 FILLER_43_149
*1562 FILLER_43_161
*1563 FILLER_43_167
*1564 FILLER_43_169
*1565 FILLER_43_17
*1566 FILLER_43_181
*1567 FILLER_43_193
*1568 FILLER_43_205
*1569 FILLER_43_217
*1570 FILLER_43_223
*1571 FILLER_43_225
*1572 FILLER_43_237
*1573 FILLER_43_249
*1574 FILLER_43_261
*1575 FILLER_43_273
*1576 FILLER_43_279
*1577 FILLER_43_281
*1578 FILLER_43_29
*1579 FILLER_43_293
*1580 FILLER_43_3
*1581 FILLER_43_33
*1582 FILLER_43_41
*1583 FILLER_43_48
*1584 FILLER_43_57
*1585 FILLER_43_62
*1586 FILLER_43_74
*1587 FILLER_43_86
*1588 FILLER_43_98
*1589 FILLER_44_109
*1590 FILLER_44_121
*1591 FILLER_44_13
*1592 FILLER_44_133
*1593 FILLER_44_139
*1594 FILLER_44_141
*1595 FILLER_44_153
*1596 FILLER_44_165
*1597 FILLER_44_177
*1598 FILLER_44_189
*1599 FILLER_44_195
*1600 FILLER_44_197
*1601 FILLER_44_209
*1602 FILLER_44_21
*1603 FILLER_44_221
*1604 FILLER_44_233
*1605 FILLER_44_245
*1606 FILLER_44_251
*1607 FILLER_44_253
*1608 FILLER_44_265
*1609 FILLER_44_27
*1610 FILLER_44_277
*1611 FILLER_44_289
*1612 FILLER_44_29
*1613 FILLER_44_297
*1614 FILLER_44_3
*1615 FILLER_44_40
*1616 FILLER_44_48
*1617 FILLER_44_60
*1618 FILLER_44_70
*1619 FILLER_44_82
*1620 FILLER_44_85
*1621 FILLER_44_97
*1622 FILLER_45_102
*1623 FILLER_45_110
*1624 FILLER_45_113
*1625 FILLER_45_125
*1626 FILLER_45_137
*1627 FILLER_45_149
*1628 FILLER_45_161
*1629 FILLER_45_167
*1630 FILLER_45_169
*1631 FILLER_45_181
*1632 FILLER_45_193
*1633 FILLER_45_205
*1634 FILLER_45_21
*1635 FILLER_45_217
*1636 FILLER_45_223
*1637 FILLER_45_225
*1638 FILLER_45_237
*1639 FILLER_45_249
*1640 FILLER_45_261
*1641 FILLER_45_273
*1642 FILLER_45_279
*1643 FILLER_45_281
*1644 FILLER_45_293
*1645 FILLER_45_3
*1646 FILLER_45_41
*1647 FILLER_45_54
*1648 FILLER_45_57
*1649 FILLER_45_61
*1650 FILLER_45_78
*1651 FILLER_45_90
*1652 FILLER_46_109
*1653 FILLER_46_11
*1654 FILLER_46_121
*1655 FILLER_46_133
*1656 FILLER_46_139
*1657 FILLER_46_141
*1658 FILLER_46_153
*1659 FILLER_46_165
*1660 FILLER_46_177
*1661 FILLER_46_189
*1662 FILLER_46_195
*1663 FILLER_46_197
*1664 FILLER_46_20
*1665 FILLER_46_209
*1666 FILLER_46_221
*1667 FILLER_46_233
*1668 FILLER_46_245
*1669 FILLER_46_251
*1670 FILLER_46_253
*1671 FILLER_46_265
*1672 FILLER_46_277
*1673 FILLER_46_289
*1674 FILLER_46_29
*1675 FILLER_46_297
*1676 FILLER_46_3
*1677 FILLER_46_36
*1678 FILLER_46_45
*1679 FILLER_46_53
*1680 FILLER_46_62
*1681 FILLER_46_69
*1682 FILLER_46_7
*1683 FILLER_46_81
*1684 FILLER_46_85
*1685 FILLER_46_97
*1686 FILLER_47_105
*1687 FILLER_47_11
*1688 FILLER_47_111
*1689 FILLER_47_113
*1690 FILLER_47_125
*1691 FILLER_47_137
*1692 FILLER_47_149
*1693 FILLER_47_161
*1694 FILLER_47_167
*1695 FILLER_47_169
*1696 FILLER_47_18
*1697 FILLER_47_181
*1698 FILLER_47_193