*SPEF "ieee 1481-1999"
*DESIGN "regymm_funnyblinky"
*DATE "11:11:11 Fri 11 11, 1111"
*VENDOR "OpenRCX"
*PROGRAM "Parallel Extraction"
*VERSION "1.0"
*DESIGN_FLOW "NAME_SCOPE LOCAL" "PIN_CAP NONE"
*DIVIDER /
*DELIMITER :
*BUS_DELIMITER []
*T_UNIT 1 NS
*C_UNIT 1 PF
*R_UNIT 1 OHM
*L_UNIT 1 HENRY

*NAME_MAP
*1 io_in[0]
*2 io_in[1]
*3 io_in[2]
*4 io_in[3]
*5 io_in[4]
*6 io_in[5]
*7 io_in[6]
*8 io_in[7]
*9 io_out[0]
*10 io_out[1]
*11 io_out[2]
*12 io_out[3]
*13 io_out[4]
*14 io_out[5]
*15 io_out[6]
*16 io_out[7]
*19 _000_
*20 _001_
*21 _002_
*22 _003_
*23 _004_
*24 _005_
*25 _006_
*26 _007_
*27 _008_
*28 _009_
*29 _010_
*30 _011_
*31 _012_
*32 _013_
*33 _014_
*34 _015_
*35 _016_
*36 _017_
*37 _018_
*38 _019_
*39 _020_
*40 _021_
*41 _022_
*42 _023_
*43 _024_
*44 _025_
*45 _026_
*46 _027_
*47 _028_
*48 _029_
*49 _030_
*50 _031_
*51 _032_
*52 _033_
*53 _034_
*54 _035_
*55 _036_
*56 _037_
*57 _038_
*58 _039_
*59 _040_
*60 _041_
*61 _042_
*62 _043_
*63 _044_
*64 _045_
*65 _046_
*66 _047_
*67 _048_
*68 _049_
*69 _050_
*70 _051_
*71 _052_
*72 _053_
*73 _054_
*74 _055_
*75 _056_
*76 _057_
*77 _058_
*78 _059_
*79 _060_
*80 _061_
*81 _062_
*82 _063_
*83 _064_
*84 _065_
*85 _066_
*86 _067_
*87 _068_
*88 _069_
*89 _070_
*90 _071_
*91 _072_
*92 _073_
*93 _074_
*94 _075_
*95 _076_
*96 _077_
*97 _078_
*98 _079_
*99 _080_
*100 _081_
*101 _082_
*102 _083_
*103 _084_
*104 _085_
*105 _086_
*106 _087_
*107 _088_
*108 _089_
*109 _090_
*110 _091_
*111 _092_
*112 _093_
*113 _094_
*114 _095_
*115 _096_
*116 _097_
*117 _098_
*118 _099_
*119 _100_
*120 _101_
*121 _102_
*122 _103_
*123 _104_
*124 _105_
*125 _106_
*126 _107_
*127 _108_
*128 _109_
*129 _110_
*130 _111_
*131 _112_
*132 _113_
*133 _114_
*134 _115_
*135 _116_
*136 _117_
*137 _118_
*138 _119_
*139 _120_
*140 _121_
*141 _122_
*142 _123_
*143 _124_
*144 _125_
*145 _126_
*146 _127_
*147 _128_
*148 _129_
*149 _130_
*150 _131_
*151 _132_
*152 _133_
*153 _134_
*154 _135_
*155 _136_
*156 _137_
*157 _138_
*158 _139_
*159 _140_
*160 _141_
*161 _142_
*162 _143_
*163 _144_
*164 _145_
*165 _146_
*166 _147_
*167 _148_
*168 _149_
*169 _150_
*170 _151_
*171 _152_
*172 _153_
*173 _154_
*174 _155_
*175 _156_
*176 _157_
*177 _158_
*178 _159_
*179 _160_
*180 _161_
*181 _162_
*182 _163_
*183 _164_
*184 _165_
*185 _166_
*186 _167_
*187 _168_
*188 _169_
*189 _170_
*190 _171_
*191 _172_
*192 _173_
*193 _174_
*194 _175_
*195 _176_
*196 _177_
*197 _178_
*198 _179_
*199 _180_
*200 _181_
*201 _182_
*202 _183_
*203 _184_
*204 _185_
*205 _186_
*206 _187_
*207 _188_
*208 _189_
*209 _190_
*210 _191_
*211 _192_
*212 _193_
*213 _194_
*214 _195_
*215 _196_
*216 _197_
*217 _198_
*218 _199_
*219 _200_
*220 _201_
*221 _202_
*222 _203_
*223 _204_
*224 _205_
*225 _206_
*226 _207_
*227 _208_
*228 _209_
*229 _210_
*230 _211_
*231 _212_
*232 _213_
*233 _214_
*234 _215_
*235 _216_
*236 _217_
*237 _218_
*238 _219_
*239 _220_
*240 _221_
*241 _222_
*242 _223_
*243 _224_
*244 _225_
*245 _226_
*246 _227_
*247 _228_
*248 _229_
*249 _230_
*250 _231_
*251 _232_
*252 _233_
*253 _234_
*254 _235_
*255 _236_
*256 _237_
*257 _238_
*258 _239_
*259 _240_
*260 _241_
*261 _242_
*262 _243_
*263 _244_
*264 _245_
*265 clknet_0_io_in[0]
*266 clknet_2_0__leaf_io_in[0]
*267 clknet_2_1__leaf_io_in[0]
*268 clknet_2_2__leaf_io_in[0]
*269 clknet_2_3__leaf_io_in[0]
*270 clkslow
*271 cnt2\[0\]
*272 cnt2\[10\]
*273 cnt2\[11\]
*274 cnt2\[12\]
*275 cnt2\[13\]
*276 cnt2\[1\]
*277 cnt2\[2\]
*278 cnt2\[3\]
*279 cnt2\[4\]
*280 cnt2\[5\]
*281 cnt2\[6\]
*282 cnt2\[7\]
*283 cnt2\[8\]
*284 cnt2\[9\]
*285 cnt\[0\]
*286 cnt\[10\]
*287 cnt\[11\]
*288 cnt\[12\]
*289 cnt\[13\]
*290 cnt\[1\]
*291 cnt\[2\]
*292 cnt\[3\]
*293 cnt\[4\]
*294 cnt\[5\]
*295 cnt\[6\]
*296 cnt\[7\]
*297 cnt\[8\]
*298 cnt\[9\]
*299 cntf\[0\]
*300 cntf\[1\]
*301 cntf\[2\]
*302 cntslow\[0\]
*303 cntslow\[1\]
*304 cntslow\[2\]
*305 cntslow\[3\]
*306 cntslow\[4\]
*307 cntslow\[5\]
*308 cntslow\[6\]
*309 net1
*310 net2
*311 net3
*312 net4
*313 net5
*314 net6
*315 net7
*316 sig1r
*317 sig1rr
*318 sig2r
*319 sig2rr
*320 FILLER_0_103
*321 FILLER_0_111
*322 FILLER_0_113
*323 FILLER_0_125
*324 FILLER_0_137
*325 FILLER_0_141
*326 FILLER_0_153
*327 FILLER_0_165
*328 FILLER_0_169
*329 FILLER_0_181
*330 FILLER_0_193
*331 FILLER_0_197
*332 FILLER_0_209
*333 FILLER_0_22
*334 FILLER_0_221
*335 FILLER_0_225
*336 FILLER_0_237
*337 FILLER_0_249
*338 FILLER_0_253
*339 FILLER_0_265
*340 FILLER_0_277
*341 FILLER_0_281
*342 FILLER_0_29
*343 FILLER_0_293
*344 FILLER_0_3
*345 FILLER_0_53
*346 FILLER_0_57
*347 FILLER_0_75
*348 FILLER_0_82
*349 FILLER_0_85
*350 FILLER_10_100
*351 FILLER_10_108
*352 FILLER_10_120
*353 FILLER_10_132
*354 FILLER_10_141
*355 FILLER_10_153
*356 FILLER_10_165
*357 FILLER_10_177
*358 FILLER_10_189
*359 FILLER_10_195
*360 FILLER_10_197
*361 FILLER_10_209
*362 FILLER_10_221
*363 FILLER_10_233
*364 FILLER_10_245
*365 FILLER_10_251
*366 FILLER_10_253
*367 FILLER_10_26
*368 FILLER_10_265
*369 FILLER_10_277
*370 FILLER_10_289
*371 FILLER_10_29
*372 FILLER_10_297
*373 FILLER_10_3
*374 FILLER_10_49
*375 FILLER_10_61
*376 FILLER_10_73
*377 FILLER_10_81
*378 FILLER_10_85
*379 FILLER_10_9
*380 FILLER_10_94
*381 FILLER_11_111
*382 FILLER_11_113
*383 FILLER_11_122
*384 FILLER_11_134
*385 FILLER_11_146
*386 FILLER_11_158
*387 FILLER_11_166
*388 FILLER_11_169
*389 FILLER_11_181
*390 FILLER_11_193
*391 FILLER_11_205
*392 FILLER_11_217
*393 FILLER_11_223
*394 FILLER_11_225
*395 FILLER_11_237
*396 FILLER_11_249
*397 FILLER_11_26
*398 FILLER_11_261
*399 FILLER_11_273
*400 FILLER_11_279
*401 FILLER_11_281
*402 FILLER_11_293
*403 FILLER_11_3
*404 FILLER_11_49
*405 FILLER_11_55
*406 FILLER_11_57
*407 FILLER_11_75
*408 FILLER_11_87
*409 FILLER_11_9
*410 FILLER_11_99
*411 FILLER_12_105
*412 FILLER_12_114
*413 FILLER_12_121
*414 FILLER_12_133
*415 FILLER_12_139
*416 FILLER_12_141
*417 FILLER_12_153
*418 FILLER_12_165
*419 FILLER_12_177
*420 FILLER_12_189
*421 FILLER_12_195
*422 FILLER_12_197
*423 FILLER_12_209
*424 FILLER_12_221
*425 FILLER_12_233
*426 FILLER_12_245
*427 FILLER_12_25
*428 FILLER_12_251
*429 FILLER_12_253
*430 FILLER_12_265
*431 FILLER_12_277
*432 FILLER_12_289
*433 FILLER_12_29
*434 FILLER_12_297
*435 FILLER_12_3
*436 FILLER_12_49
*437 FILLER_12_61
*438 FILLER_12_69
*439 FILLER_12_75
*440 FILLER_12_82
*441 FILLER_12_85
*442 FILLER_12_97
*443 FILLER_13_106
*444 FILLER_13_113
*445 FILLER_13_120
*446 FILLER_13_126
*447 FILLER_13_133
*448 FILLER_13_145
*449 FILLER_13_157
*450 FILLER_13_165
*451 FILLER_13_169
*452 FILLER_13_181
*453 FILLER_13_193
*454 FILLER_13_205
*455 FILLER_13_217
*456 FILLER_13_223
*457 FILLER_13_225
*458 FILLER_13_237
*459 FILLER_13_249
*460 FILLER_13_261
*461 FILLER_13_273
*462 FILLER_13_279
*463 FILLER_13_28
*464 FILLER_13_281
*465 FILLER_13_293
*466 FILLER_13_3
*467 FILLER_13_48
*468 FILLER_13_57
*469 FILLER_13_65
*470 FILLER_13_76
*471 FILLER_13_8
*472 FILLER_13_86
*473 FILLER_13_98
*474 FILLER_14_108
*475 FILLER_14_114
*476 FILLER_14_123
*477 FILLER_14_135
*478 FILLER_14_139
*479 FILLER_14_141
*480 FILLER_14_153
*481 FILLER_14_165
*482 FILLER_14_177
*483 FILLER_14_189
*484 FILLER_14_195
*485 FILLER_14_197
*486 FILLER_14_209
*487 FILLER_14_21
*488 FILLER_14_221
*489 FILLER_14_233
*490 FILLER_14_245
*491 FILLER_14_251
*492 FILLER_14_253
*493 FILLER_14_265
*494 FILLER_14_27
*495 FILLER_14_277
*496 FILLER_14_289
*497 FILLER_14_29
*498 FILLER_14_297
*499 FILLER_14_3
*500 FILLER_14_35
*501 FILLER_14_47
*502 FILLER_14_59
*503 FILLER_14_64
*504 FILLER_14_78
*505 FILLER_14_85
*506 FILLER_14_96
*507 FILLER_15_104
*508 FILLER_15_113
*509 FILLER_15_125
*510 FILLER_15_137
*511 FILLER_15_149
*512 FILLER_15_161
*513 FILLER_15_167
*514 FILLER_15_169
*515 FILLER_15_181
*516 FILLER_15_193
*517 FILLER_15_205
*518 FILLER_15_21
*519 FILLER_15_217
*520 FILLER_15_223
*521 FILLER_15_225
*522 FILLER_15_237
*523 FILLER_15_249
*524 FILLER_15_261
*525 FILLER_15_273
*526 FILLER_15_279
*527 FILLER_15_281
*528 FILLER_15_29
*529 FILLER_15_293
*530 FILLER_15_3
*531 FILLER_15_37
*532 FILLER_15_44
*533 FILLER_15_54
*534 FILLER_15_57
*535 FILLER_15_62
*536 FILLER_15_73
*537 FILLER_15_80
*538 FILLER_15_94
*539 FILLER_16_104
*540 FILLER_16_116
*541 FILLER_16_128
*542 FILLER_16_141
*543 FILLER_16_15
*544 FILLER_16_153
*545 FILLER_16_165
*546 FILLER_16_177
*547 FILLER_16_189
*548 FILLER_16_195
*549 FILLER_16_197
*550 FILLER_16_209
*551 FILLER_16_221
*552 FILLER_16_233
*553 FILLER_16_245
*554 FILLER_16_25
*555 FILLER_16_251
*556 FILLER_16_253
*557 FILLER_16_265
*558 FILLER_16_277
*559 FILLER_16_289
*560 FILLER_16_29
*561 FILLER_16_297
*562 FILLER_16_3
*563 FILLER_16_36
*564 FILLER_16_48
*565 FILLER_16_56
*566 FILLER_16_61
*567 FILLER_16_69
*568 FILLER_16_73
*569 FILLER_16_77
*570 FILLER_16_83
*571 FILLER_16_85
*572 FILLER_16_92
*573 FILLER_17_100
*574 FILLER_17_113
*575 FILLER_17_120
*576 FILLER_17_132
*577 FILLER_17_144
*578 FILLER_17_156
*579 FILLER_17_169
*580 FILLER_17_17
*581 FILLER_17_181
*582 FILLER_17_193
*583 FILLER_17_205
*584 FILLER_17_217
*585 FILLER_17_223
*586 FILLER_17_225
*587 FILLER_17_237
*588 FILLER_17_249
*589 FILLER_17_261
*590 FILLER_17_273
*591 FILLER_17_279
*592 FILLER_17_281
*593 FILLER_17_29
*594 FILLER_17_293
*595 FILLER_17_3
*596 FILLER_17_37
*597 FILLER_17_47
*598 FILLER_17_54
*599 FILLER_17_57
*600 FILLER_17_62
*601 FILLER_17_70
*602 FILLER_17_77
*603 FILLER_17_89
*604 FILLER_17_9
*605 FILLER_18_103
*606 FILLER_18_115
*607 FILLER_18_127
*608 FILLER_18_139
*609 FILLER_18_141
*610 FILLER_18_153
*611 FILLER_18_165
*612 FILLER_18_177
*613 FILLER_18_189
*614 FILLER_18_195
*615 FILLER_18_197
*616 FILLER_18_20
*617 FILLER_18_209
*618 FILLER_18_221
*619 FILLER_18_233
*620 FILLER_18_245
*621 FILLER_18_251
*622 FILLER_18_253
*623 FILLER_18_265
*624 FILLER_18_277
*625 FILLER_18_289
*626 FILLER_18_29
*627 FILLER_18_297
*628 FILLER_18_3
*629 FILLER_18_33
*630 FILLER_18_40
*631 FILLER_18_48
*632 FILLER_18_58
*633 FILLER_18_66
*634 FILLER_18_77
*635 FILLER_18_8
*636 FILLER_18_83
*637 FILLER_18_85
*638 FILLER_18_91
*639 FILLER_19_108
*640 FILLER_19_113
*641 FILLER_19_122
*642 FILLER_19_134
*643 FILLER_19_146
*644 FILLER_19_158
*645 FILLER_19_16
*646 FILLER_19_166
*647 FILLER_19_169
*648 FILLER_19_181
*649 FILLER_19_193
*650 FILLER_19_205
*651 FILLER_19_217
*652 FILLER_19_223
*653 FILLER_19_225
*654 FILLER_19_237
*655 FILLER_19_249
*656 FILLER_19_25
*657 FILLER_19_261
*658 FILLER_19_273
*659 FILLER_19_279
*660 FILLER_19_281
*661 FILLER_19_293
*662 FILLER_19_3
*663 FILLER_19_37
*664 FILLER_19_49
*665 FILLER_19_55
*666 FILLER_19_57
*667 FILLER_19_65
*668 FILLER_19_73
*669 FILLER_19_88
*670 FILLER_19_96
*671 FILLER_1_105
*672 FILLER_1_111
*673 FILLER_1_113
*674 FILLER_1_122
*675 FILLER_1_134
*676 FILLER_1_146
*677 FILLER_1_158
*678 FILLER_1_166
*679 FILLER_1_169
*680 FILLER_1_181
*681 FILLER_1_193
*682 FILLER_1_205
*683 FILLER_1_217
*684 FILLER_1_223
*685 FILLER_1_225
*686 FILLER_1_237
*687 FILLER_1_24
*688 FILLER_1_249
*689 FILLER_1_261
*690 FILLER_1_273
*691 FILLER_1_279
*692 FILLER_1_281
*693 FILLER_1_293
*694 FILLER_1_3
*695 FILLER_1_32
*696 FILLER_1_50
*697 FILLER_1_57
*698 FILLER_1_75
*699 FILLER_1_83
*700 FILLER_1_93
*701 FILLER_20_10
*702 FILLER_20_110
*703 FILLER_20_122
*704 FILLER_20_134
*705 FILLER_20_141
*706 FILLER_20_153
*707 FILLER_20_165
*708 FILLER_20_177
*709 FILLER_20_18
*710 FILLER_20_189
*711 FILLER_20_195
*712 FILLER_20_197
*713 FILLER_20_209
*714 FILLER_20_221
*715 FILLER_20_233
*716 FILLER_20_245
*717 FILLER_20_251
*718 FILLER_20_253
*719 FILLER_20_26
*720 FILLER_20_265
*721 FILLER_20_277
*722 FILLER_20_289
*723 FILLER_20_29
*724 FILLER_20_297
*725 FILLER_20_3
*726 FILLER_20_33
*727 FILLER_20_42
*728 FILLER_20_54
*729 FILLER_20_65
*730 FILLER_20_80
*731 FILLER_20_85
*732 FILLER_20_91
*733 FILLER_20_98
*734 FILLER_21_105
*735 FILLER_21_111
*736 FILLER_21_113
*737 FILLER_21_125
*738 FILLER_21_137
*739 FILLER_21_14
*740 FILLER_21_149
*741 FILLER_21_161
*742 FILLER_21_167
*743 FILLER_21_169
*744 FILLER_21_181
*745 FILLER_21_193
*746 FILLER_21_205
*747 FILLER_21_21
*748 FILLER_21_217
*749 FILLER_21_223
*750 FILLER_21_225
*751 FILLER_21_237
*752 FILLER_21_249
*753 FILLER_21_261
*754 FILLER_21_273
*755 FILLER_21_279
*756 FILLER_21_281
*757 FILLER_21_293
*758 FILLER_21_3
*759 FILLER_21_33
*760 FILLER_21_45
*761 FILLER_21_54
*762 FILLER_21_57
*763 FILLER_21_66
*764 FILLER_21_81
*765 FILLER_21_93
*766 FILLER_22_109
*767 FILLER_22_121
*768 FILLER_22_133
*769 FILLER_22_139
*770 FILLER_22_141
*771 FILLER_22_153
*772 FILLER_22_165
*773 FILLER_22_17
*774 FILLER_22_177
*775 FILLER_22_189
*776 FILLER_22_195
*777 FILLER_22_197
*778 FILLER_22_209
*779 FILLER_22_221
*780 FILLER_22_233
*781 FILLER_22_245
*782 FILLER_22_251
*783 FILLER_22_253
*784 FILLER_22_26
*785 FILLER_22_265
*786 FILLER_22_277
*787 FILLER_22_289
*788 FILLER_22_29
*789 FILLER_22_297
*790 FILLER_22_3
*791 FILLER_22_38
*792 FILLER_22_63
*793 FILLER_22_74
*794 FILLER_22_82
*795 FILLER_22_85
*796 FILLER_22_9
*797 FILLER_22_97
*798 FILLER_23_103
*799 FILLER_23_111
*800 FILLER_23_113
*801 FILLER_23_125
*802 FILLER_23_137
*803 FILLER_23_149
*804 FILLER_23_16
*805 FILLER_23_161
*806 FILLER_23_167
*807 FILLER_23_169
*808 FILLER_23_181
*809 FILLER_23_193
*810 FILLER_23_205
*811 FILLER_23_217
*812 FILLER_23_223
*813 FILLER_23_225
*814 FILLER_23_237
*815 FILLER_23_249
*816 FILLER_23_261
*817 FILLER_23_273
*818 FILLER_23_279
*819 FILLER_23_281
*820 FILLER_23_293
*821 FILLER_23_3
*822 FILLER_23_45
*823 FILLER_23_53
*824 FILLER_23_57
*825 FILLER_23_63
*826 FILLER_23_67
*827 FILLER_23_79
*828 FILLER_23_9
*829 FILLER_23_91
*830 FILLER_24_109
*831 FILLER_24_121
*832 FILLER_24_133
*833 FILLER_24_139
*834 FILLER_24_141
*835 FILLER_24_153
*836 FILLER_24_165
*837 FILLER_24_177
*838 FILLER_24_189
*839 FILLER_24_195
*840 FILLER_24_197
*841 FILLER_24_209
*842 FILLER_24_221
*843 FILLER_24_233
*844 FILLER_24_245
*845 FILLER_24_251
*846 FILLER_24_253
*847 FILLER_24_26
*848 FILLER_24_265
*849 FILLER_24_277
*850 FILLER_24_289
*851 FILLER_24_29
*852 FILLER_24_297
*853 FILLER_24_3
*854 FILLER_24_44
*855 FILLER_24_54
*856 FILLER_24_66
*857 FILLER_24_78
*858 FILLER_24_85
*859 FILLER_24_97
*860 FILLER_25_105
*861 FILLER_25_111
*862 FILLER_25_113
*863 FILLER_25_125
*864 FILLER_25_137
*865 FILLER_25_149
*866 FILLER_25_161
*867 FILLER_25_167
*868 FILLER_25_169
*869 FILLER_25_181
*870 FILLER_25_193
*871 FILLER_25_205
*872 FILLER_25_21
*873 FILLER_25_217
*874 FILLER_25_223
*875 FILLER_25_225
*876 FILLER_25_237
*877 FILLER_25_249
*878 FILLER_25_261
*879 FILLER_25_273
*880 FILLER_25_279
*881 FILLER_25_281
*882 FILLER_25_293
*883 FILLER_25_3
*884 FILLER_25_32
*885 FILLER_25_45
*886 FILLER_25_53
*887 FILLER_25_57
*888 FILLER_25_69
*889 FILLER_25_8
*890 FILLER_25_81
*891 FILLER_25_93
*892 FILLER_26_109
*893 FILLER_26_11
*894 FILLER_26_121
*895 FILLER_26_133
*896 FILLER_26_139
*897 FILLER_26_141
*898 FILLER_26_153
*899 FILLER_26_165
*900 FILLER_26_177
*901 FILLER_26_189
*902 FILLER_26_195
*903 FILLER_26_197
*904 FILLER_26_209
*905 FILLER_26_221
*906 FILLER_26_233
*907 FILLER_26_245
*908 FILLER_26_251
*909 FILLER_26_253
*910 FILLER_26_26
*911 FILLER_26_265
*912 FILLER_26_277
*913 FILLER_26_289
*914 FILLER_26_29
*915 FILLER_26_297
*916 FILLER_26_3
*917 FILLER_26_41
*918 FILLER_26_70
*919 FILLER_26_82
*920 FILLER_26_85
*921 FILLER_26_97
*922 FILLER_27_105
*923 FILLER_27_11
*924 FILLER_27_111
*925 FILLER_27_113
*926 FILLER_27_125
*927 FILLER_27_137
*928 FILLER_27_149
*929 FILLER_27_161
*930 FILLER_27_167
*931 FILLER_27_169
*932 FILLER_27_181
*933 FILLER_27_193
*934 FILLER_27_205
*935 FILLER_27_21
*936 FILLER_27_217
*937 FILLER_27_223
*938 FILLER_27_225
*939 FILLER_27_237
*940 FILLER_27_249
*941 FILLER_27_261
*942 FILLER_27_273
*943 FILLER_27_279
*944 FILLER_27_281
*945 FILLER_27_293
*946 FILLER_27_3
*947 FILLER_27_34
*948 FILLER_27_46
*949 FILLER_27_54
*950 FILLER_27_57
*951 FILLER_27_69
*952 FILLER_27_81
*953 FILLER_27_93
*954 FILLER_28_109
*955 FILLER_28_121
*956 FILLER_28_133
*957 FILLER_28_139
*958 FILLER_28_141
*959 FILLER_28_15
*960 FILLER_28_153
*961 FILLER_28_165
*962 FILLER_28_177
*963 FILLER_28_189
*964 FILLER_28_195
*965 FILLER_28_197
*966 FILLER_28_209
*967 FILLER_28_221
*968 FILLER_28_233
*969 FILLER_28_245
*970 FILLER_28_251
*971 FILLER_28_253
*972 FILLER_28_265
*973 FILLER_28_27
*974 FILLER_28_277
*975 FILLER_28_289
*976 FILLER_28_29
*977 FILLER_28_297
*978 FILLER_28_3
*979 FILLER_28_37
*980 FILLER_28_46
*981 FILLER_28_58
*982 FILLER_28_70
*983 FILLER_28_82
*984 FILLER_28_85
*985 FILLER_28_97
*986 FILLER_29_105
*987 FILLER_29_111
*988 FILLER_29_113
*989 FILLER_29_125
*990 FILLER_29_137
*991 FILLER_29_149
*992 FILLER_29_15
*993 FILLER_29_161
*994 FILLER_29_167
*995 FILLER_29_169
*996 FILLER_29_181
*997 FILLER_29_193
*998 FILLER_29_205
*999 FILLER_29_217
*1000 FILLER_29_22
*1001 FILLER_29_223
*1002 FILLER_29_225
*1003 FILLER_29_237
*1004 FILLER_29_249
*1005 FILLER_29_261
*1006 FILLER_29_273
*1007 FILLER_29_279
*1008 FILLER_29_281
*1009 FILLER_29_293
*1010 FILLER_29_3
*1011 FILLER_29_33
*1012 FILLER_29_45
*1013 FILLER_29_53
*1014 FILLER_29_57
*1015 FILLER_29_69
*1016 FILLER_29_81
*1017 FILLER_29_93
*1018 FILLER_2_109
*1019 FILLER_2_121
*1020 FILLER_2_133
*1021 FILLER_2_139
*1022 FILLER_2_141
*1023 FILLER_2_153
*1024 FILLER_2_165
*1025 FILLER_2_177
*1026 FILLER_2_189
*1027 FILLER_2_195
*1028 FILLER_2_197
*1029 FILLER_2_209
*1030 FILLER_2_22
*1031 FILLER_2_221
*1032 FILLER_2_233
*1033 FILLER_2_245
*1034 FILLER_2_251
*1035 FILLER_2_253
*1036 FILLER_2_265
*1037 FILLER_2_277
*1038 FILLER_2_289
*1039 FILLER_2_29
*1040 FILLER_2_297
*1041 FILLER_2_3
*1042 FILLER_2_41
*1043 FILLER_2_65
*1044 FILLER_2_77
*1045 FILLER_2_83
*1046 FILLER_2_85
*1047 FILLER_2_97
*1048 FILLER_30_109
*1049 FILLER_30_121
*1050 FILLER_30_133
*1051 FILLER_30_139
*1052 FILLER_30_141
*1053 FILLER_30_15
*1054 FILLER_30_153
*1055 FILLER_30_165
*1056 FILLER_30_177
*1057 FILLER_30_189
*1058 FILLER_30_195
*1059 FILLER_30_197
*1060 FILLER_30_209
*1061 FILLER_30_221
*1062 FILLER_30_23
*1063 FILLER_30_233
*1064 FILLER_30_245
*1065 FILLER_30_251
*1066 FILLER_30_253
*1067 FILLER_30_265
*1068 FILLER_30_27
*1069 FILLER_30_277
*1070 FILLER_30_289
*1071 FILLER_30_29
*1072 FILLER_30_297
*1073 FILLER_30_3
*1074 FILLER_30_38
*1075 FILLER_30_50
*1076 FILLER_30_62
*1077 FILLER_30_74
*1078 FILLER_30_82
*1079 FILLER_30_85
*1080 FILLER_30_97
*1081 FILLER_31_105
*1082 FILLER_31_111
*1083 FILLER_31_113
*1084 FILLER_31_125
*1085 FILLER_31_137
*1086 FILLER_31_149
*1087 FILLER_31_15
*1088 FILLER_31_161
*1089 FILLER_31_167
*1090 FILLER_31_169
*1091 FILLER_31_181
*1092 FILLER_31_193
*1093 FILLER_31_205
*1094 FILLER_31_217
*1095 FILLER_31_223
*1096 FILLER_31_225
*1097 FILLER_31_237
*1098 FILLER_31_249
*1099 FILLER_31_261
*1100 FILLER_31_27
*1101 FILLER_31_273
*1102 FILLER_31_279
*1103 FILLER_31_281
*1104 FILLER_31_293
*1105 FILLER_31_3
*1106 FILLER_31_32
*1107 FILLER_31_44
*1108 FILLER_31_57
*1109 FILLER_31_69
*1110 FILLER_31_81
*1111 FILLER_31_93
*1112 FILLER_32_109
*1113 FILLER_32_121
*1114 FILLER_32_133
*1115 FILLER_32_139
*1116 FILLER_32_141
*1117 FILLER_32_15
*1118 FILLER_32_153
*1119 FILLER_32_165
*1120 FILLER_32_177
*1121 FILLER_32_189
*1122 FILLER_32_195
*1123 FILLER_32_197
*1124 FILLER_32_209
*1125 FILLER_32_221
*1126 FILLER_32_233
*1127 FILLER_32_245
*1128 FILLER_32_251
*1129 FILLER_32_253
*1130 FILLER_32_265
*1131 FILLER_32_27
*1132 FILLER_32_277
*1133 FILLER_32_289
*1134 FILLER_32_29
*1135 FILLER_32_297
*1136 FILLER_32_3
*1137 FILLER_32_41
*1138 FILLER_32_53
*1139 FILLER_32_65
*1140 FILLER_32_77
*1141 FILLER_32_83
*1142 FILLER_32_85
*1143 FILLER_32_97
*1144 FILLER_33_105
*1145 FILLER_33_111
*1146 FILLER_33_113
*1147 FILLER_33_125
*1148 FILLER_33_137
*1149 FILLER_33_149
*1150 FILLER_33_15
*1151 FILLER_33_161
*1152 FILLER_33_167
*1153 FILLER_33_169
*1154 FILLER_33_181
*1155 FILLER_33_193
*1156 FILLER_33_205
*1157 FILLER_33_217
*1158 FILLER_33_223
*1159 FILLER_33_225
*1160 FILLER_33_23
*1161 FILLER_33_237
*1162 FILLER_33_249
*1163 FILLER_33_261
*1164 FILLER_33_273
*1165 FILLER_33_279
*1166 FILLER_33_281
*1167 FILLER_33_293
*1168 FILLER_33_3
*1169 FILLER_33_32
*1170 FILLER_33_40
*1171 FILLER_33_49
*1172 FILLER_33_55
*1173 FILLER_33_57
*1174 FILLER_33_69
*1175 FILLER_33_81
*1176 FILLER_33_93
*1177 FILLER_34_109
*1178 FILLER_34_121
*1179 FILLER_34_133
*1180 FILLER_34_139
*1181 FILLER_34_141
*1182 FILLER_34_15
*1183 FILLER_34_153
*1184 FILLER_34_165
*1185 FILLER_34_177
*1186 FILLER_34_189
*1187 FILLER_34_195
*1188 FILLER_34_197
*1189 FILLER_34_209
*1190 FILLER_34_221
*1191 FILLER_34_233
*1192 FILLER_34_245
*1193 FILLER_34_251
*1194 FILLER_34_253
*1195 FILLER_34_265
*1196 FILLER_34_27
*1197 FILLER_34_277
*1198 FILLER_34_289
*1199 FILLER_34_29
*1200 FILLER_34_297
*1201 FILLER_34_3
*1202 FILLER_34_41
*1203 FILLER_34_53
*1204 FILLER_34_65
*1205 FILLER_34_77
*1206 FILLER_34_83
*1207 FILLER_34_85
*1208 FILLER_34_97
*1209 FILLER_35_100
*1210 FILLER_35_113
*1211 FILLER_35_125
*1212 FILLER_35_137
*1213 FILLER_35_149
*1214 FILLER_35_161
*1215 FILLER_35_167
*1216 FILLER_35_169
*1217 FILLER_35_181
*1218 FILLER_35_193
*1219 FILLER_35_205
*1220 FILLER_35_217
*1221 FILLER_35_223
*1222 FILLER_35_225
*1223 FILLER_35_237
*1224 FILLER_35_24
*1225 FILLER_35_249
*1226 FILLER_35_261
*1227 FILLER_35_273
*1228 FILLER_35_279
*1229 FILLER_35_281
*1230 FILLER_35_293
*1231 FILLER_35_3
*1232 FILLER_35_32
*1233 FILLER_35_38
*1234 FILLER_35_42
*1235 FILLER_35_49
*1236 FILLER_35_55
*1237 FILLER_35_57
*1238 FILLER_35_65
*1239 FILLER_35_76
*1240 FILLER_35_88
*1241 FILLER_36_109
*1242 FILLER_36_121
*1243 FILLER_36_133
*1244 FILLER_36_139
*1245 FILLER_36_14
*1246 FILLER_36_141
*1247 FILLER_36_153
*1248 FILLER_36_165
*1249 FILLER_36_177
*1250 FILLER_36_189
*1251 FILLER_36_195
*1252 FILLER_36_197
*1253 FILLER_36_209
*1254 FILLER_36_221
*1255 FILLER_36_233
*1256 FILLER_36_245
*1257 FILLER_36_251
*1258 FILLER_36_253
*1259 FILLER_36_26
*1260 FILLER_36_265
*1261 FILLER_36_277
*1262 FILLER_36_289
*1263 FILLER_36_29
*1264 FILLER_36_297
*1265 FILLER_36_3
*1266 FILLER_36_33
*1267 FILLER_36_39
*1268 FILLER_36_47
*1269 FILLER_36_59
*1270 FILLER_36_70
*1271 FILLER_36_82
*1272 FILLER_36_85
*1273 FILLER_36_97
*1274 FILLER_37_107
*1275 FILLER_37_111
*1276 FILLER_37_113
*1277 FILLER_37_125
*1278 FILLER_37_137
*1279 FILLER_37_149
*1280 FILLER_37_161
*1281 FILLER_37_167
*1282 FILLER_37_169
*1283 FILLER_37_181
*1284 FILLER_37_193
*1285 FILLER_37_20
*1286 FILLER_37_205
*1287 FILLER_37_217
*1288 FILLER_37_223
*1289 FILLER_37_225
*1290 FILLER_37_237
*1291 FILLER_37_249
*1292 FILLER_37_261
*1293 FILLER_37_273
*1294 FILLER_37_279
*1295 FILLER_37_281
*1296 FILLER_37_293
*1297 FILLER_37_3
*1298 FILLER_37_33
*1299 FILLER_37_46
*1300 FILLER_37_50
*1301 FILLER_37_54
*1302 FILLER_37_57
*1303 FILLER_37_70
*1304 FILLER_37_78
*1305 FILLER_37_97
*1306 FILLER_38_117
*1307 FILLER_38_129
*1308 FILLER_38_137
*1309 FILLER_38_141
*1310 FILLER_38_15
*1311 FILLER_38_153
*1312 FILLER_38_165
*1313 FILLER_38_177
*1314 FILLER_38_189
*1315 FILLER_38_195
*1316 FILLER_38_197
*1317 FILLER_38_209
*1318 FILLER_38_221
*1319 FILLER_38_233
*1320 FILLER_38_245
*1321 FILLER_38_251
*1322 FILLER_38_253
*1323 FILLER_38_265
*1324 FILLER_38_27
*1325 FILLER_38_277
*1326 FILLER_38_289
*1327 FILLER_38_29
*1328 FILLER_38_297
*1329 FILLER_38_3
*1330 FILLER_38_40
*1331 FILLER_38_50
*1332 FILLER_38_61
*1333 FILLER_38_82
*1334 FILLER_38_85
*1335 FILLER_38_97
*1336 FILLER_39_105
*1337 FILLER_39_111
*1338 FILLER_39_113
*1339 FILLER_39_118
*1340 FILLER_39_130
*1341 FILLER_39_14
*1342 FILLER_39_142
*1343 FILLER_39_154
*1344 FILLER_39_166
*1345 FILLER_39_169
*1346 FILLER_39_181
*1347 FILLER_39_193
*1348 FILLER_39_205
*1349 FILLER_39_217
*1350 FILLER_39_223
*1351 FILLER_39_225
*1352 FILLER_39_237
*1353 FILLER_39_24
*1354 FILLER_39_249
*1355 FILLER_39_261
*1356 FILLER_39_273
*1357 FILLER_39_279
*1358 FILLER_39_281
*1359 FILLER_39_293
*1360 FILLER_39_3
*1361 FILLER_39_37
*1362 FILLER_39_49
*1363 FILLER_39_55
*1364 FILLER_39_57
*1365 FILLER_39_71
*1366 FILLER_39_80
*1367 FILLER_39_93
*1368 FILLER_3_106
*1369 FILLER_3_113
*1370 FILLER_3_119
*1371 FILLER_3_128
*1372 FILLER_3_139
*1373 FILLER_3_151
*1374 FILLER_3_163
*1375 FILLER_3_167
*1376 FILLER_3_169
*1377 FILLER_3_181
*1378 FILLER_3_193
*1379 FILLER_3_205
*1380 FILLER_3_217
*1381 FILLER_3_223
*1382 FILLER_3_225
*1383 FILLER_3_237
*1384 FILLER_3_249
*1385 FILLER_3_25
*1386 FILLER_3_261
*1387 FILLER_3_273
*1388 FILLER_3_279
*1389 FILLER_3_281
*1390 FILLER_3_293
*1391 FILLER_3_3
*1392 FILLER_3_31
*1393 FILLER_3_48
*1394 FILLER_3_57
*1395 FILLER_3_63
*1396 FILLER_3_72
*1397 FILLER_3_81
*1398 FILLER_3_85
*1399 FILLER_3_92
*1400 FILLER_40_10
*1401 FILLER_40_103
*1402 FILLER_40_115
*1403 FILLER_40_127
*1404 FILLER_40_139
*1405 FILLER_40_141
*1406 FILLER_40_153
*1407 FILLER_40_165
*1408 FILLER_40_177
*1409 FILLER_40_189
*1410 FILLER_40_195
*1411 FILLER_40_197
*1412 FILLER_40_209
*1413 FILLER_40_21
*1414 FILLER_40_221
*1415 FILLER_40_233
*1416 FILLER_40_245
*1417 FILLER_40_251
*1418 FILLER_40_253
*1419 FILLER_40_265
*1420 FILLER_40_27
*1421 FILLER_40_277
*1422 FILLER_40_289
*1423 FILLER_40_29
*1424 FILLER_40_297
*1425 FILLER_40_3
*1426 FILLER_40_45
*1427 FILLER_40_51
*1428 FILLER_40_61
*1429 FILLER_40_67
*1430 FILLER_40_73
*1431 FILLER_40_82
*1432 FILLER_40_85
*1433 FILLER_40_94
*1434 FILLER_41_102
*1435 FILLER_41_110
*1436 FILLER_41_113
*1437 FILLER_41_125
*1438 FILLER_41_137
*1439 FILLER_41_149
*1440 FILLER_41_15
*1441 FILLER_41_161
*1442 FILLER_41_167
*1443 FILLER_41_169
*1444 FILLER_41_181
*1445 FILLER_41_193
*1446 FILLER_41_205
*1447 FILLER_41_217
*1448 FILLER_41_223
*1449 FILLER_41_225
*1450 FILLER_41_237
*1451 FILLER_41_249
*1452 FILLER_41_261
*1453 FILLER_41_27
*1454 FILLER_41_273
*1455 FILLER_41_279
*1456 FILLER_41_281
*1457 FILLER_41_293
*1458 FILLER_41_3
*1459 FILLER_41_33
*1460 FILLER_41_45
*1461 FILLER_41_49
*1462 FILLER_41_54
*1463 FILLER_41_57
*1464 FILLER_41_66
*1465 FILLER_41_82
*1466 FILLER_41_89
*1467 FILLER_41_95
*1468 FILLER_42_10
*1469 FILLER_42_111
*1470 FILLER_42_123
*1471 FILLER_42_135
*1472 FILLER_42_139
*1473 FILLER_42_141
*1474 FILLER_42_153
*1475 FILLER_42_165
*1476 FILLER_42_177
*1477 FILLER_42_189
*1478 FILLER_42_195
*1479 FILLER_42_197
*1480 FILLER_42_209
*1481 FILLER_42_22
*1482 FILLER_42_221
*1483 FILLER_42_233
*1484 FILLER_42_245
*1485 FILLER_42_251
*1486 FILLER_42_253
*1487 FILLER_42_265
*1488 FILLER_42_277
*1489 FILLER_42_289
*1490 FILLER_42_29
*1491 FILLER_42_297
*1492 FILLER_42_3
*1493 FILLER_42_41
*1494 FILLER_42_51
*1495 FILLER_42_65
*1496 FILLER_42_71
*1497 FILLER_42_76
*1498 FILLER_42_85
*1499 FILLER_42_90
*1500 FILLER_42_99
*1501 FILLER_43_108
*1502 FILLER_43_113
*1503 FILLER_43_125
*1504 FILLER_43_137
*1505 FILLER_43_149
*1506 FILLER_43_161
*1507 FILLER_43_167
*1508 FILLER_43_169
*1509 FILLER_43_17
*1510 FILLER_43_181
*1511 FILLER_43_193
*1512 FILLER_43_205
*1513 FILLER_43_217
*1514 FILLER_43_22
*1515 FILLER_43_223
*1516 FILLER_43_225
*1517 FILLER_43_237
*1518 FILLER_43_249
*1519 FILLER_43_261
*1520 FILLER_43_273
*1521 FILLER_43_279
*1522 FILLER_43_281
*1523 FILLER_43_29
*1524 FILLER_43_293
*1525 FILLER_43_3
*1526 FILLER_43_40
*1527 FILLER_43_48
*1528 FILLER_43_54
*1529 FILLER_43_57
*1530 FILLER_43_68
*1531 FILLER_43_76
*1532 FILLER_43_84
*1533 FILLER_43_9
*1534 FILLER_44_104
*1535 FILLER_44_11
*1536 FILLER_44_116
*1537 FILLER_44_128
*1538 FILLER_44_141
*1539 FILLER_44_153
*1540 FILLER_44_165
*1541 FILLER_44_177
*1542 FILLER_44_189
*1543 FILLER_44_19
*1544 FILLER_44_195
*1545 FILLER_44_197
*1546 FILLER_44_209
*1547 FILLER_44_221
*1548 FILLER_44_233
*1549 FILLER_44_245
*1550 FILLER_44_251
*1551 FILLER_44_253
*1552 FILLER_44_26
*1553 FILLER_44_265
*1554 FILLER_44_277
*1555 FILLER_44_289
*1556 FILLER_44_29
*1557 FILLER_44_297
*1558 FILLER_44_3
*1559 FILLER_44_45
*1560 FILLER_44_57
*1561 FILLER_44_66
*1562 FILLER_44_70
*1563 FILLER_44_76
*1564 FILLER_44_85
*1565 FILLER_45_103
*1566 FILLER_45_11
*1567 FILLER_45_111
*1568 FILLER_45_113
*1569 FILLER_45_125
*1570 FILLER_45_137
*1571 FILLER_45_149
*1572 FILLER_45_161
*1573 FILLER_45_167
*1574 FILLER_45_169
*1575 FILLER_45_181
*1576 FILLER_45_193
*1577 FILLER_45_205
*1578 FILLER_45_217
*1579 FILLER_45_223
*1580 FILLER_45_225
*1581 FILLER_45_237
*1582 FILLER_45_249
*1583 FILLER_45_261
*1584 FILLER_45_273
*1585 FILLER_45_279
*1586 FILLER_45_281
*1587 FILLER_45_293
*1588 FILLER_45_3
*1589 FILLER_45_32
*1590 FILLER_45_40
*1591 FILLER_45_49
*1592 FILLER_45_55
*1593 FILLER_45_57
*1594 FILLER_45_65
*1595 FILLER_45_81
*1596 FILLER_45_94
*1597 FILLER_46_106
*1598 FILLER_46_118
*1599 FILLER_46_12
*1600 FILLER_46_130
*1601 FILLER_46_138
*1602 FILLER_46_141
*1603 FILLER_46_153
*1604 FILLER_46_165
*1605 FILLER_46_177
*1606 FILLER_46_189
*1607 FILLER_46_195
*1608 FILLER_46_197
*1609 FILLER_46_20
*1610 FILLER_46_209
*1611 FILLER_46_221
*1612 FILLER_46_233
*1613 FILLER_46_245
*1614 FILLER_46_251
*1615 FILLER_46_253
*1616 FILLER_46_26
*1617 FILLER_46_265
*1618 FILLER_46_277
*1619 FILLER_46_289
*1620 FILLER_46_29
*1621 FILLER_46_297
*1622 FILLER_46_3
*1623 FILLER_46_39
*1624 FILLER_46_49
*1625 FILLER_46_57
*1626 FILLER_46_76
*1627 FILLER_46_85
*1628 FILLER_47_108
*1629 FILLER_47_113
*1630 FILLER_47_125
*1631 FILLER_47_137
*1632 FILLER_47_14
*1633 FILLER_47_149
*1634 FILLER_47_161
*1635 FILLER_47_167
*1636 FILLER_47_169
*1637 FILLER_47_181
*1638 FILLER_47_193
*1639 FILLER_47_205
*1640 FILLER_47_217
*1641 FILLER_47_223
*1642 FILLER_47_225
*1643 FILLER_47_237
*1644 FILLER_47_249
*1645 FILLER_47_25
*1646 FILLER_47_261
*1647 FILLER_47_273
*1648 FILLER_47_279
*1649 FILLER_47_281
*1650 FILLER_47_293
*1651 FILLER_47_3
*1652 FILLER_47_37
*1653 FILLER_47_54
*1654 FILLER_47_57
*1655 FILLER_47_71
*1656 FILLER_47_96
*1657 FILLER_48_100
*1658 FILLER_48_11
*1659 FILLER_48_112
*1660 FILLER_48_124
*1661 FILLER_48_136
*1662 FILLER_48_141
*1663 FILLER_48_153
*1664 FILLER_48_165
*1665 FILLER_48_177
*1666 FILLER_48_189
*1667 FILLER_48_195
*1668 FILLER_48_197
*1669 FILLER_48_209
*1670 FILLER_48_22
*1671 FILLER_48_221
*1672 FILLER_48_233
*1673 FILLER_48_245
*1674 FILLER_48_251
*1675 FILLER_48_253
*1676 FILLER_48_265
*1677 FILLER_48_277
*1678 FILLER_48_289
*1679 FILLER_48_29
*1680 FILLER_48_297
*1681 FILLER_48_3
*1682 FILLER_48_39
*1683 FILLER_48_51
*1684 FILLER_48_59