*SPEF "ieee 1481-1999"
*DESIGN "rglenn_hex_to_7_seg"
*DATE "11:11:11 Fri 11 11, 1111"
*VENDOR "OpenRCX"
*PROGRAM "Parallel Extraction"
*VERSION "1.0"
*DESIGN_FLOW "NAME_SCOPE LOCAL" "PIN_CAP NONE"
*DIVIDER /
*DELIMITER :
*BUS_DELIMITER []
*T_UNIT 1 NS
*C_UNIT 1 PF
*R_UNIT 1 OHM
*L_UNIT 1 HENRY

*NAME_MAP
*1 io_in[0]
*2 io_in[1]
*3 io_in[2]
*4 io_in[3]
*5 io_in[4]
*6 io_in[5]
*7 io_in[6]
*8 io_in[7]
*9 io_out[0]
*10 io_out[1]
*11 io_out[2]
*12 io_out[3]
*13 io_out[4]
*14 io_out[5]
*15 io_out[6]
*16 io_out[7]
*19 _00_
*20 _01_
*21 _02_
*22 _03_
*23 _04_
*24 _05_
*25 _06_
*26 _07_
*27 _08_
*28 _09_
*29 _10_
*30 _11_
*31 _12_
*32 _13_
*33 _14_
*34 _15_
*35 _16_
*36 _17_
*37 _18_
*38 _19_
*39 _20_
*40 _21_
*41 _22_
*42 _23_
*43 _24_
*44 _25_
*45 _26_
*46 _27_
*47 _28_
*48 _29_
*49 clknet_0_io_in[0]
*50 clknet_1_0__leaf_io_in[0]
*51 clknet_1_1__leaf_io_in[0]
*52 hex2seg7\.segments\[0\]
*53 hex2seg7\.segments\[1\]
*54 hex2seg7\.segments\[2\]
*55 hex2seg7\.segments\[3\]
*56 hex2seg7\.segments\[4\]
*57 hex2seg7\.segments\[5\]
*58 hex2seg7\.segments\[6\]
*59 net1
*60 net2
*61 net3
*62 net4
*63 net5
*64 net6
*65 FILLER_0_109
*66 FILLER_0_113
*67 FILLER_0_125
*68 FILLER_0_137
*69 FILLER_0_141
*70 FILLER_0_153
*71 FILLER_0_165
*72 FILLER_0_169
*73 FILLER_0_181
*74 FILLER_0_193
*75 FILLER_0_197
*76 FILLER_0_209
*77 FILLER_0_221
*78 FILLER_0_225
*79 FILLER_0_237
*80 FILLER_0_249
*81 FILLER_0_25
*82 FILLER_0_253
*83 FILLER_0_265
*84 FILLER_0_277
*85 FILLER_0_281
*86 FILLER_0_29
*87 FILLER_0_293
*88 FILLER_0_3
*89 FILLER_0_47
*90 FILLER_0_55
*91 FILLER_0_57
*92 FILLER_0_75
*93 FILLER_0_83
*94 FILLER_0_85
*95 FILLER_0_97
*96 FILLER_10_109
*97 FILLER_10_121
*98 FILLER_10_133
*99 FILLER_10_139
*100 FILLER_10_141
*101 FILLER_10_15
*102 FILLER_10_153
*103 FILLER_10_165
*104 FILLER_10_177
*105 FILLER_10_189
*106 FILLER_10_195
*107 FILLER_10_197
*108 FILLER_10_209
*109 FILLER_10_221
*110 FILLER_10_233
*111 FILLER_10_245
*112 FILLER_10_251
*113 FILLER_10_253
*114 FILLER_10_265
*115 FILLER_10_27
*116 FILLER_10_277
*117 FILLER_10_289
*118 FILLER_10_29
*119 FILLER_10_297
*120 FILLER_10_3
*121 FILLER_10_38
*122 FILLER_10_50
*123 FILLER_10_62
*124 FILLER_10_74
*125 FILLER_10_82
*126 FILLER_10_85
*127 FILLER_10_97
*128 FILLER_11_105
*129 FILLER_11_11
*130 FILLER_11_111
*131 FILLER_11_113
*132 FILLER_11_125
*133 FILLER_11_137
*134 FILLER_11_149
*135 FILLER_11_161
*136 FILLER_11_167
*137 FILLER_11_169
*138 FILLER_11_18
*139 FILLER_11_181
*140 FILLER_11_193
*141 FILLER_11_205
*142 FILLER_11_217
*143 FILLER_11_223
*144 FILLER_11_225
*145 FILLER_11_237
*146 FILLER_11_249
*147 FILLER_11_261
*148 FILLER_11_273
*149 FILLER_11_279
*150 FILLER_11_281
*151 FILLER_11_293
*152 FILLER_11_3
*153 FILLER_11_30
*154 FILLER_11_42
*155 FILLER_11_54
*156 FILLER_11_57
*157 FILLER_11_69
*158 FILLER_11_81
*159 FILLER_11_93
*160 FILLER_12_109
*161 FILLER_12_121
*162 FILLER_12_13
*163 FILLER_12_133
*164 FILLER_12_139
*165 FILLER_12_141
*166 FILLER_12_153
*167 FILLER_12_165
*168 FILLER_12_177
*169 FILLER_12_189
*170 FILLER_12_195
*171 FILLER_12_197
*172 FILLER_12_209
*173 FILLER_12_221
*174 FILLER_12_23
*175 FILLER_12_233
*176 FILLER_12_245
*177 FILLER_12_251
*178 FILLER_12_253
*179 FILLER_12_265
*180 FILLER_12_27
*181 FILLER_12_277
*182 FILLER_12_289
*183 FILLER_12_29
*184 FILLER_12_297
*185 FILLER_12_3
*186 FILLER_12_41
*187 FILLER_12_53
*188 FILLER_12_65
*189 FILLER_12_69
*190 FILLER_12_81
*191 FILLER_12_85
*192 FILLER_12_97
*193 FILLER_13_101
*194 FILLER_13_109
*195 FILLER_13_113
*196 FILLER_13_125
*197 FILLER_13_137
*198 FILLER_13_149
*199 FILLER_13_161
*200 FILLER_13_167
*201 FILLER_13_169
*202 FILLER_13_181
*203 FILLER_13_193
*204 FILLER_13_205
*205 FILLER_13_21
*206 FILLER_13_217
*207 FILLER_13_223
*208 FILLER_13_225
*209 FILLER_13_237
*210 FILLER_13_249
*211 FILLER_13_261
*212 FILLER_13_273
*213 FILLER_13_279
*214 FILLER_13_281
*215 FILLER_13_293
*216 FILLER_13_3
*217 FILLER_13_30
*218 FILLER_13_38
*219 FILLER_13_42
*220 FILLER_13_54
*221 FILLER_13_57
*222 FILLER_13_65
*223 FILLER_13_77
*224 FILLER_13_89
*225 FILLER_13_9
*226 FILLER_14_109
*227 FILLER_14_11
*228 FILLER_14_121
*229 FILLER_14_133
*230 FILLER_14_139
*231 FILLER_14_141
*232 FILLER_14_15
*233 FILLER_14_153
*234 FILLER_14_165
*235 FILLER_14_177
*236 FILLER_14_189
*237 FILLER_14_195
*238 FILLER_14_197
*239 FILLER_14_209
*240 FILLER_14_221
*241 FILLER_14_233
*242 FILLER_14_24
*243 FILLER_14_245
*244 FILLER_14_251
*245 FILLER_14_253
*246 FILLER_14_265
*247 FILLER_14_277
*248 FILLER_14_289
*249 FILLER_14_29
*250 FILLER_14_297
*251 FILLER_14_3
*252 FILLER_14_38
*253 FILLER_14_46
*254 FILLER_14_53
*255 FILLER_14_65
*256 FILLER_14_77
*257 FILLER_14_83
*258 FILLER_14_85
*259 FILLER_14_97
*260 FILLER_15_105
*261 FILLER_15_111
*262 FILLER_15_113
*263 FILLER_15_125
*264 FILLER_15_13
*265 FILLER_15_137
*266 FILLER_15_149
*267 FILLER_15_161
*268 FILLER_15_167
*269 FILLER_15_169
*270 FILLER_15_181
*271 FILLER_15_193
*272 FILLER_15_205
*273 FILLER_15_217
*274 FILLER_15_223
*275 FILLER_15_225
*276 FILLER_15_237
*277 FILLER_15_249
*278 FILLER_15_25
*279 FILLER_15_261
*280 FILLER_15_273
*281 FILLER_15_279
*282 FILLER_15_281
*283 FILLER_15_293
*284 FILLER_15_3
*285 FILLER_15_37
*286 FILLER_15_49
*287 FILLER_15_55
*288 FILLER_15_57
*289 FILLER_15_63
*290 FILLER_15_69
*291 FILLER_15_81
*292 FILLER_15_9
*293 FILLER_15_93
*294 FILLER_16_109
*295 FILLER_16_121
*296 FILLER_16_133
*297 FILLER_16_139
*298 FILLER_16_141
*299 FILLER_16_153
*300 FILLER_16_165
*301 FILLER_16_177
*302 FILLER_16_189
*303 FILLER_16_195
*304 FILLER_16_197
*305 FILLER_16_209
*306 FILLER_16_21
*307 FILLER_16_221
*308 FILLER_16_233
*309 FILLER_16_245
*310 FILLER_16_251
*311 FILLER_16_253
*312 FILLER_16_265
*313 FILLER_16_27
*314 FILLER_16_277
*315 FILLER_16_289
*316 FILLER_16_29
*317 FILLER_16_297
*318 FILLER_16_3
*319 FILLER_16_38
*320 FILLER_16_50
*321 FILLER_16_62
*322 FILLER_16_74
*323 FILLER_16_82
*324 FILLER_16_85
*325 FILLER_16_9
*326 FILLER_16_97
*327 FILLER_17_105
*328 FILLER_17_111
*329 FILLER_17_113
*330 FILLER_17_125
*331 FILLER_17_13
*332 FILLER_17_137
*333 FILLER_17_149
*334 FILLER_17_161
*335 FILLER_17_167
*336 FILLER_17_169
*337 FILLER_17_181
*338 FILLER_17_193
*339 FILLER_17_205
*340 FILLER_17_217
*341 FILLER_17_223
*342 FILLER_17_225
*343 FILLER_17_237
*344 FILLER_17_249
*345 FILLER_17_25
*346 FILLER_17_261
*347 FILLER_17_273
*348 FILLER_17_279
*349 FILLER_17_281
*350 FILLER_17_293
*351 FILLER_17_3
*352 FILLER_17_37
*353 FILLER_17_49
*354 FILLER_17_55
*355 FILLER_17_57
*356 FILLER_17_69
*357 FILLER_17_81
*358 FILLER_17_93
*359 FILLER_18_109
*360 FILLER_18_121
*361 FILLER_18_133
*362 FILLER_18_139
*363 FILLER_18_141
*364 FILLER_18_153
*365 FILLER_18_16
*366 FILLER_18_165
*367 FILLER_18_177
*368 FILLER_18_189
*369 FILLER_18_195
*370 FILLER_18_197
*371 FILLER_18_209
*372 FILLER_18_221
*373 FILLER_18_23
*374 FILLER_18_233
*375 FILLER_18_245
*376 FILLER_18_251
*377 FILLER_18_253
*378 FILLER_18_265
*379 FILLER_18_27
*380 FILLER_18_277
*381 FILLER_18_289
*382 FILLER_18_29
*383 FILLER_18_297
*384 FILLER_18_3
*385 FILLER_18_41
*386 FILLER_18_53
*387 FILLER_18_65
*388 FILLER_18_77
*389 FILLER_18_83
*390 FILLER_18_85
*391 FILLER_18_9
*392 FILLER_18_97
*393 FILLER_19_105
*394 FILLER_19_111
*395 FILLER_19_113
*396 FILLER_19_125
*397 FILLER_19_137
*398 FILLER_19_149
*399 FILLER_19_161
*400 FILLER_19_167
*401 FILLER_19_169
*402 FILLER_19_17
*403 FILLER_19_181
*404 FILLER_19_193
*405 FILLER_19_205
*406 FILLER_19_217
*407 FILLER_19_223
*408 FILLER_19_225
*409 FILLER_19_237
*410 FILLER_19_249
*411 FILLER_19_261
*412 FILLER_19_273
*413 FILLER_19_279
*414 FILLER_19_281
*415 FILLER_19_29
*416 FILLER_19_293
*417 FILLER_19_3
*418 FILLER_19_41
*419 FILLER_19_53
*420 FILLER_19_57
*421 FILLER_19_69
*422 FILLER_19_81
*423 FILLER_19_9
*424 FILLER_19_93
*425 FILLER_1_105
*426 FILLER_1_111
*427 FILLER_1_113
*428 FILLER_1_125
*429 FILLER_1_137
*430 FILLER_1_149
*431 FILLER_1_15
*432 FILLER_1_161
*433 FILLER_1_167
*434 FILLER_1_169
*435 FILLER_1_181
*436 FILLER_1_193
*437 FILLER_1_205
*438 FILLER_1_217
*439 FILLER_1_223
*440 FILLER_1_225
*441 FILLER_1_237
*442 FILLER_1_249
*443 FILLER_1_261
*444 FILLER_1_273
*445 FILLER_1_279
*446 FILLER_1_281
*447 FILLER_1_293
*448 FILLER_1_3
*449 FILLER_1_36
*450 FILLER_1_48
*451 FILLER_1_57
*452 FILLER_1_69
*453 FILLER_1_81
*454 FILLER_1_93
*455 FILLER_20_109
*456 FILLER_20_121
*457 FILLER_20_133
*458 FILLER_20_139
*459 FILLER_20_14
*460 FILLER_20_141
*461 FILLER_20_153
*462 FILLER_20_165
*463 FILLER_20_177
*464 FILLER_20_189
*465 FILLER_20_195
*466 FILLER_20_197
*467 FILLER_20_209
*468 FILLER_20_221
*469 FILLER_20_233
*470 FILLER_20_245
*471 FILLER_20_251
*472 FILLER_20_253
*473 FILLER_20_26
*474 FILLER_20_265
*475 FILLER_20_277
*476 FILLER_20_289
*477 FILLER_20_29
*478 FILLER_20_297
*479 FILLER_20_3
*480 FILLER_20_36
*481 FILLER_20_48
*482 FILLER_20_60
*483 FILLER_20_7
*484 FILLER_20_72
*485 FILLER_20_85
*486 FILLER_20_97
*487 FILLER_21_105
*488 FILLER_21_11
*489 FILLER_21_111
*490 FILLER_21_113
*491 FILLER_21_125
*492 FILLER_21_137
*493 FILLER_21_149
*494 FILLER_21_161
*495 FILLER_21_167
*496 FILLER_21_169
*497 FILLER_21_181
*498 FILLER_21_193
*499 FILLER_21_205
*500 FILLER_21_217
*501 FILLER_21_223
*502 FILLER_21_225
*503 FILLER_21_23
*504 FILLER_21_237
*505 FILLER_21_249
*506 FILLER_21_261
*507 FILLER_21_273
*508 FILLER_21_279
*509 FILLER_21_281
*510 FILLER_21_293
*511 FILLER_21_3
*512 FILLER_21_35
*513 FILLER_21_47
*514 FILLER_21_55
*515 FILLER_21_57
*516 FILLER_21_69
*517 FILLER_21_81
*518 FILLER_21_93
*519 FILLER_22_109
*520 FILLER_22_121
*521 FILLER_22_133
*522 FILLER_22_139
*523 FILLER_22_141
*524 FILLER_22_15
*525 FILLER_22_153
*526 FILLER_22_165
*527 FILLER_22_177
*528 FILLER_22_189
*529 FILLER_22_195
*530 FILLER_22_197
*531 FILLER_22_209
*532 FILLER_22_221
*533 FILLER_22_233
*534 FILLER_22_245
*535 FILLER_22_251
*536 FILLER_22_253
*537 FILLER_22_265
*538 FILLER_22_27
*539 FILLER_22_277
*540 FILLER_22_289
*541 FILLER_22_29
*542 FILLER_22_297
*543 FILLER_22_3
*544 FILLER_22_41
*545 FILLER_22_53
*546 FILLER_22_65
*547 FILLER_22_77
*548 FILLER_22_83
*549 FILLER_22_85
*550 FILLER_22_97
*551 FILLER_23_105
*552 FILLER_23_111
*553 FILLER_23_113
*554 FILLER_23_125
*555 FILLER_23_137
*556 FILLER_23_149
*557 FILLER_23_15
*558 FILLER_23_161
*559 FILLER_23_167
*560 FILLER_23_169
*561 FILLER_23_181
*562 FILLER_23_19
*563 FILLER_23_193
*564 FILLER_23_205
*565 FILLER_23_217
*566 FILLER_23_223
*567 FILLER_23_225
*568 FILLER_23_23
*569 FILLER_23_237
*570 FILLER_23_249
*571 FILLER_23_261
*572 FILLER_23_273
*573 FILLER_23_279
*574 FILLER_23_281
*575 FILLER_23_293
*576 FILLER_23_3
*577 FILLER_23_35
*578 FILLER_23_47
*579 FILLER_23_55
*580 FILLER_23_57
*581 FILLER_23_69
*582 FILLER_23_81
*583 FILLER_23_93
*584 FILLER_24_109
*585 FILLER_24_121
*586 FILLER_24_133
*587 FILLER_24_139
*588 FILLER_24_141
*589 FILLER_24_153
*590 FILLER_24_165
*591 FILLER_24_177
*592 FILLER_24_189
*593 FILLER_24_195
*594 FILLER_24_197
*595 FILLER_24_20
*596 FILLER_24_209
*597 FILLER_24_221
*598 FILLER_24_233
*599 FILLER_24_245
*600 FILLER_24_25
*601 FILLER_24_251
*602 FILLER_24_253
*603 FILLER_24_265
*604 FILLER_24_277
*605 FILLER_24_289
*606 FILLER_24_29
*607 FILLER_24_297
*608 FILLER_24_3
*609 FILLER_24_41
*610 FILLER_24_53
*611 FILLER_24_65
*612 FILLER_24_77
*613 FILLER_24_8
*614 FILLER_24_83
*615 FILLER_24_85
*616 FILLER_24_97
*617 FILLER_25_105
*618 FILLER_25_111
*619 FILLER_25_113
*620 FILLER_25_125
*621 FILLER_25_137
*622 FILLER_25_149
*623 FILLER_25_15
*624 FILLER_25_161
*625 FILLER_25_167
*626 FILLER_25_169
*627 FILLER_25_181
*628 FILLER_25_193
*629 FILLER_25_205
*630 FILLER_25_217
*631 FILLER_25_223
*632 FILLER_25_225
*633 FILLER_25_237
*634 FILLER_25_249
*635 FILLER_25_261
*636 FILLER_25_27
*637 FILLER_25_273
*638 FILLER_25_279
*639 FILLER_25_281
*640 FILLER_25_293
*641 FILLER_25_3
*642 FILLER_25_39
*643 FILLER_25_51
*644 FILLER_25_55
*645 FILLER_25_57
*646 FILLER_25_69
*647 FILLER_25_81
*648 FILLER_25_93
*649 FILLER_26_109
*650 FILLER_26_121
*651 FILLER_26_133
*652 FILLER_26_139
*653 FILLER_26_141
*654 FILLER_26_15
*655 FILLER_26_153
*656 FILLER_26_165
*657 FILLER_26_177
*658 FILLER_26_189
*659 FILLER_26_195
*660 FILLER_26_197
*661 FILLER_26_209
*662 FILLER_26_221
*663 FILLER_26_233
*664 FILLER_26_245
*665 FILLER_26_251
*666 FILLER_26_253
*667 FILLER_26_265
*668 FILLER_26_27
*669 FILLER_26_277
*670 FILLER_26_289
*671 FILLER_26_29
*672 FILLER_26_297
*673 FILLER_26_3
*674 FILLER_26_41
*675 FILLER_26_53
*676 FILLER_26_65
*677 FILLER_26_77
*678 FILLER_26_83
*679 FILLER_26_85
*680 FILLER_26_97
*681 FILLER_27_105
*682 FILLER_27_111
*683 FILLER_27_113
*684 FILLER_27_125
*685 FILLER_27_137
*686 FILLER_27_149
*687 FILLER_27_15
*688 FILLER_27_161
*689 FILLER_27_167
*690 FILLER_27_169
*691 FILLER_27_181
*692 FILLER_27_193
*693 FILLER_27_205
*694 FILLER_27_217
*695 FILLER_27_223
*696 FILLER_27_225
*697 FILLER_27_237
*698 FILLER_27_249
*699 FILLER_27_261
*700 FILLER_27_27
*701 FILLER_27_273
*702 FILLER_27_279
*703 FILLER_27_281
*704 FILLER_27_293
*705 FILLER_27_3
*706 FILLER_27_39
*707 FILLER_27_51
*708 FILLER_27_55
*709 FILLER_27_57
*710 FILLER_27_69
*711 FILLER_27_81
*712 FILLER_27_93
*713 FILLER_28_109
*714 FILLER_28_121
*715 FILLER_28_133
*716 FILLER_28_139
*717 FILLER_28_141
*718 FILLER_28_15
*719 FILLER_28_153
*720 FILLER_28_165
*721 FILLER_28_177
*722 FILLER_28_189
*723 FILLER_28_195
*724 FILLER_28_197
*725 FILLER_28_209
*726 FILLER_28_221
*727 FILLER_28_233
*728 FILLER_28_245
*729 FILLER_28_251
*730 FILLER_28_253
*731 FILLER_28_265
*732 FILLER_28_27
*733 FILLER_28_277
*734 FILLER_28_289
*735 FILLER_28_29
*736 FILLER_28_297
*737 FILLER_28_3
*738 FILLER_28_41
*739 FILLER_28_53
*740 FILLER_28_65
*741 FILLER_28_77
*742 FILLER_28_83
*743 FILLER_28_85
*744 FILLER_28_97
*745 FILLER_29_105
*746 FILLER_29_111
*747 FILLER_29_113
*748 FILLER_29_125
*749 FILLER_29_137
*750 FILLER_29_149
*751 FILLER_29_15
*752 FILLER_29_161
*753 FILLER_29_167
*754 FILLER_29_169
*755 FILLER_29_181
*756 FILLER_29_193
*757 FILLER_29_205
*758 FILLER_29_217
*759 FILLER_29_223
*760 FILLER_29_225
*761 FILLER_29_237
*762 FILLER_29_249
*763 FILLER_29_261
*764 FILLER_29_27
*765 FILLER_29_273
*766 FILLER_29_279
*767 FILLER_29_281
*768 FILLER_29_293
*769 FILLER_29_3
*770 FILLER_29_39
*771 FILLER_29_51
*772 FILLER_29_55
*773 FILLER_29_57
*774 FILLER_29_69
*775 FILLER_29_81
*776 FILLER_29_93
*777 FILLER_2_109
*778 FILLER_2_121
*779 FILLER_2_133
*780 FILLER_2_139
*781 FILLER_2_141
*782 FILLER_2_153
*783 FILLER_2_165
*784 FILLER_2_177
*785 FILLER_2_189
*786 FILLER_2_195
*787 FILLER_2_197
*788 FILLER_2_209
*789 FILLER_2_221
*790 FILLER_2_233
*791 FILLER_2_24
*792 FILLER_2_245
*793 FILLER_2_251
*794 FILLER_2_253
*795 FILLER_2_265
*796 FILLER_2_277
*797 FILLER_2_289
*798 FILLER_2_29
*799 FILLER_2_297
*800 FILLER_2_3
*801 FILLER_2_47
*802 FILLER_2_59
*803 FILLER_2_7
*804 FILLER_2_71
*805 FILLER_2_83
*806 FILLER_2_85
*807 FILLER_2_97
*808 FILLER_30_109
*809 FILLER_30_121
*810 FILLER_30_133
*811 FILLER_30_139
*812 FILLER_30_141
*813 FILLER_30_15
*814 FILLER_30_153
*815 FILLER_30_165
*816 FILLER_30_177
*817 FILLER_30_189
*818 FILLER_30_195
*819 FILLER_30_197
*820 FILLER_30_209
*821 FILLER_30_221
*822 FILLER_30_233
*823 FILLER_30_245
*824 FILLER_30_251
*825 FILLER_30_253
*826 FILLER_30_265
*827 FILLER_30_27
*828 FILLER_30_277
*829 FILLER_30_289
*830 FILLER_30_29
*831 FILLER_30_297
*832 FILLER_30_3
*833 FILLER_30_41
*834 FILLER_30_53
*835 FILLER_30_65
*836 FILLER_30_77
*837 FILLER_30_83
*838 FILLER_30_85
*839 FILLER_30_97
*840 FILLER_31_105
*841 FILLER_31_111
*842 FILLER_31_113
*843 FILLER_31_125
*844 FILLER_31_137
*845 FILLER_31_149
*846 FILLER_31_15
*847 FILLER_31_161
*848 FILLER_31_167
*849 FILLER_31_169
*850 FILLER_31_181
*851 FILLER_31_193
*852 FILLER_31_205
*853 FILLER_31_217
*854 FILLER_31_223
*855 FILLER_31_225
*856 FILLER_31_237
*857 FILLER_31_249
*858 FILLER_31_261
*859 FILLER_31_27
*860 FILLER_31_273
*861 FILLER_31_279
*862 FILLER_31_281
*863 FILLER_31_293
*864 FILLER_31_3
*865 FILLER_31_39
*866 FILLER_31_51
*867 FILLER_31_55
*868 FILLER_31_57
*869 FILLER_31_69
*870 FILLER_31_81
*871 FILLER_31_93
*872 FILLER_32_109
*873 FILLER_32_121
*874 FILLER_32_133
*875 FILLER_32_139
*876 FILLER_32_141
*877 FILLER_32_153
*878 FILLER_32_165
*879 FILLER_32_177
*880 FILLER_32_189
*881 FILLER_32_195
*882 FILLER_32_197
*883 FILLER_32_209
*884 FILLER_32_21
*885 FILLER_32_221
*886 FILLER_32_233
*887 FILLER_32_245
*888 FILLER_32_251
*889 FILLER_32_253
*890 FILLER_32_265
*891 FILLER_32_27
*892 FILLER_32_277
*893 FILLER_32_289
*894 FILLER_32_29
*895 FILLER_32_297
*896 FILLER_32_3
*897 FILLER_32_41
*898 FILLER_32_53
*899 FILLER_32_65
*900 FILLER_32_77
*901 FILLER_32_83
*902 FILLER_32_85
*903 FILLER_32_9
*904 FILLER_32_97
*905 FILLER_33_105
*906 FILLER_33_111
*907 FILLER_33_113
*908 FILLER_33_125
*909 FILLER_33_137
*910 FILLER_33_149
*911 FILLER_33_15
*912 FILLER_33_161
*913 FILLER_33_167
*914 FILLER_33_169
*915 FILLER_33_181
*916 FILLER_33_193
*917 FILLER_33_205
*918 FILLER_33_217
*919 FILLER_33_223
*920 FILLER_33_225
*921 FILLER_33_237
*922 FILLER_33_249
*923 FILLER_33_261
*924 FILLER_33_27
*925 FILLER_33_273
*926 FILLER_33_279
*927 FILLER_33_281
*928 FILLER_33_293
*929 FILLER_33_3
*930 FILLER_33_39
*931 FILLER_33_51
*932 FILLER_33_55
*933 FILLER_33_57
*934 FILLER_33_69
*935 FILLER_33_81
*936 FILLER_33_93
*937 FILLER_34_109
*938 FILLER_34_121
*939 FILLER_34_133
*940 FILLER_34_139
*941 FILLER_34_141
*942 FILLER_34_15
*943 FILLER_34_153
*944 FILLER_34_165
*945 FILLER_34_177
*946 FILLER_34_189
*947 FILLER_34_195
*948 FILLER_34_197
*949 FILLER_34_209
*950 FILLER_34_221
*951 FILLER_34_233
*952 FILLER_34_245
*953 FILLER_34_251
*954 FILLER_34_253
*955 FILLER_34_265
*956 FILLER_34_27
*957 FILLER_34_277
*958 FILLER_34_289
*959 FILLER_34_29
*960 FILLER_34_297
*961 FILLER_34_3
*962 FILLER_34_41
*963 FILLER_34_53
*964 FILLER_34_65
*965 FILLER_34_77
*966 FILLER_34_83
*967 FILLER_34_85
*968 FILLER_34_97
*969 FILLER_35_105
*970 FILLER_35_111
*971 FILLER_35_113
*972 FILLER_35_125
*973 FILLER_35_137
*974 FILLER_35_149
*975 FILLER_35_15
*976 FILLER_35_161
*977 FILLER_35_167
*978 FILLER_35_169
*979 FILLER_35_181
*980 FILLER_35_193
*981 FILLER_35_205
*982 FILLER_35_217
*983 FILLER_35_223
*984 FILLER_35_225
*985 FILLER_35_237
*986 FILLER_35_249
*987 FILLER_35_261
*988 FILLER_35_27
*989 FILLER_35_273
*990 FILLER_35_279
*991 FILLER_35_281
*992 FILLER_35_293
*993 FILLER_35_3
*994 FILLER_35_39
*995 FILLER_35_51
*996 FILLER_35_55
*997 FILLER_35_57
*998 FILLER_35_69
*999 FILLER_35_81
*1000 FILLER_35_93
*1001 FILLER_36_109
*1002 FILLER_36_121
*1003 FILLER_36_133
*1004 FILLER_36_139
*1005 FILLER_36_141
*1006 FILLER_36_15
*1007 FILLER_36_153
*1008 FILLER_36_165
*1009 FILLER_36_177
*1010 FILLER_36_189
*1011 FILLER_36_195
*1012 FILLER_36_197
*1013 FILLER_36_209
*1014 FILLER_36_221
*1015 FILLER_36_233
*1016 FILLER_36_245
*1017 FILLER_36_251
*1018 FILLER_36_253
*1019 FILLER_36_265
*1020 FILLER_36_27
*1021 FILLER_36_277
*1022 FILLER_36_289
*1023 FILLER_36_29
*1024 FILLER_36_297
*1025 FILLER_36_3
*1026 FILLER_36_41
*1027 FILLER_36_53
*1028 FILLER_36_65
*1029 FILLER_36_77
*1030 FILLER_36_83
*1031 FILLER_36_85
*1032 FILLER_36_97
*1033 FILLER_37_105
*1034 FILLER_37_111
*1035 FILLER_37_113
*1036 FILLER_37_125
*1037 FILLER_37_137
*1038 FILLER_37_149
*1039 FILLER_37_15
*1040 FILLER_37_161
*1041 FILLER_37_167
*1042 FILLER_37_169
*1043 FILLER_37_181
*1044 FILLER_37_193
*1045 FILLER_37_205
*1046 FILLER_37_217
*1047 FILLER_37_223
*1048 FILLER_37_225
*1049 FILLER_37_237
*1050 FILLER_37_249
*1051 FILLER_37_261
*1052 FILLER_37_27
*1053 FILLER_37_273
*1054 FILLER_37_279
*1055 FILLER_37_281
*1056 FILLER_37_293
*1057 FILLER_37_3
*1058 FILLER_37_39
*1059 FILLER_37_51
*1060 FILLER_37_55
*1061 FILLER_37_57
*1062 FILLER_37_69
*1063 FILLER_37_81
*1064 FILLER_37_93
*1065 FILLER_38_109
*1066 FILLER_38_121
*1067 FILLER_38_133
*1068 FILLER_38_139
*1069 FILLER_38_141
*1070 FILLER_38_15
*1071 FILLER_38_153
*1072 FILLER_38_165
*1073 FILLER_38_177
*1074 FILLER_38_189
*1075 FILLER_38_195
*1076 FILLER_38_197
*1077 FILLER_38_209
*1078 FILLER_38_221
*1079 FILLER_38_233
*1080 FILLER_38_245
*1081 FILLER_38_251
*1082 FILLER_38_253
*1083 FILLER_38_265
*1084 FILLER_38_27
*1085 FILLER_38_277
*1086 FILLER_38_289
*1087 FILLER_38_29
*1088 FILLER_38_297
*1089 FILLER_38_3
*1090 FILLER_38_41
*1091 FILLER_38_53
*1092 FILLER_38_65
*1093 FILLER_38_77
*1094 FILLER_38_83
*1095 FILLER_38_85
*1096 FILLER_38_97
*1097 FILLER_39_105
*1098 FILLER_39_111
*1099 FILLER_39_113
*1100 FILLER_39_125
*1101 FILLER_39_137
*1102 FILLER_39_149
*1103 FILLER_39_15
*1104 FILLER_39_161
*1105 FILLER_39_167
*1106 FILLER_39_169
*1107 FILLER_39_181
*1108 FILLER_39_193
*1109 FILLER_39_205
*1110 FILLER_39_217
*1111 FILLER_39_223
*1112 FILLER_39_225
*1113 FILLER_39_237
*1114 FILLER_39_249
*1115 FILLER_39_261
*1116 FILLER_39_27
*1117 FILLER_39_273
*1118 FILLER_39_279
*1119 FILLER_39_281
*1120 FILLER_39_293
*1121 FILLER_39_3
*1122 FILLER_39_39
*1123 FILLER_39_51
*1124 FILLER_39_55
*1125 FILLER_39_57
*1126 FILLER_39_69
*1127 FILLER_39_81
*1128 FILLER_39_93
*1129 FILLER_3_105
*1130 FILLER_3_111
*1131 FILLER_3_113
*1132 FILLER_3_125
*1133 FILLER_3_137
*1134 FILLER_3_149
*1135 FILLER_3_15
*1136 FILLER_3_161
*1137 FILLER_3_167
*1138 FILLER_3_169
*1139 FILLER_3_181
*1140 FILLER_3_193
*1141 FILLER_3_205
*1142 FILLER_3_217
*1143 FILLER_3_223
*1144 FILLER_3_225
*1145 FILLER_3_237
*1146 FILLER_3_249
*1147 FILLER_3_261
*1148 FILLER_3_273
*1149 FILLER_3_279
*1150 FILLER_3_281
*1151 FILLER_3_293
*1152 FILLER_3_3
*1153 FILLER_3_37
*1154 FILLER_3_49
*1155 FILLER_3_55
*1156 FILLER_3_57
*1157 FILLER_3_69
*1158 FILLER_3_81
*1159 FILLER_3_93
*1160 FILLER_40_109
*1161 FILLER_40_121
*1162 FILLER_40_133
*1163 FILLER_40_139
*1164 FILLER_40_141
*1165 FILLER_40_15
*1166 FILLER_40_153
*1167 FILLER_40_165
*1168 FILLER_40_177
*1169 FILLER_40_189
*1170 FILLER_40_195
*1171 FILLER_40_197
*1172 FILLER_40_209
*1173 FILLER_40_221
*1174 FILLER_40_233
*1175 FILLER_40_245
*1176 FILLER_40_251
*1177 FILLER_40_253
*1178 FILLER_40_265
*1179 FILLER_40_27
*1180 FILLER_40_277
*1181 FILLER_40_289
*1182 FILLER_40_29
*1183 FILLER_40_297
*1184 FILLER_40_3
*1185 FILLER_40_41
*1186 FILLER_40_53
*1187 FILLER_40_65
*1188 FILLER_40_77
*1189 FILLER_40_83
*1190 FILLER_40_85
*1191 FILLER_40_97
*1192 FILLER_41_105
*1193 FILLER_41_111
*1194 FILLER_41_113
*1195 FILLER_41_125
*1196 FILLER_41_137
*1197 FILLER_41_149
*1198 FILLER_41_161
*1199 FILLER_41_167
*1200 FILLER_41_169
*1201 FILLER_41_181
*1202 FILLER_41_193
*1203 FILLER_41_205
*1204 FILLER_41_21
*1205 FILLER_41_217
*1206 FILLER_41_223
*1207 FILLER_41_225
*1208 FILLER_41_237
*1209 FILLER_41_249
*1210 FILLER_41_261
*1211 FILLER_41_273
*1212 FILLER_41_279
*1213 FILLER_41_281
*1214 FILLER_41_293
*1215 FILLER_41_3
*1216 FILLER_41_33
*1217 FILLER_41_45
*1218 FILLER_41_53
*1219 FILLER_41_57
*1220 FILLER_41_69
*1221 FILLER_41_81
*1222 FILLER_41_9
*1223 FILLER_41_93
*1224 FILLER_42_109
*1225 FILLER_42_121
*1226 FILLER_42_133
*1227 FILLER_42_139
*1228 FILLER_42_141
*1229 FILLER_42_15
*1230 FILLER_42_153
*1231 FILLER_42_165
*1232 FILLER_42_177
*1233 FILLER_42_189
*1234 FILLER_42_195
*1235 FILLER_42_197
*1236 FILLER_42_209
*1237 FILLER_42_221
*1238 FILLER_42_233
*1239 FILLER_42_245
*1240 FILLER_42_251
*1241 FILLER_42_253
*1242 FILLER_42_265
*1243 FILLER_42_27
*1244 FILLER_42_277
*1245 FILLER_42_289
*1246 FILLER_42_29
*1247 FILLER_42_297
*1248 FILLER_42_3
*1249 FILLER_42_41
*1250 FILLER_42_53
*1251 FILLER_42_65
*1252 FILLER_42_77
*1253 FILLER_42_83
*1254 FILLER_42_85
*1255 FILLER_42_97
*1256 FILLER_43_105
*1257 FILLER_43_111
*1258 FILLER_43_113
*1259 FILLER_43_125
*1260 FILLER_43_137
*1261 FILLER_43_149
*1262 FILLER_43_15
*1263 FILLER_43_161
*1264 FILLER_43_167
*1265 FILLER_43_169
*1266 FILLER_43_181
*1267 FILLER_43_193
*1268 FILLER_43_205
*1269 FILLER_43_217
*1270 FILLER_43_223
*1271 FILLER_43_225
*1272 FILLER_43_237
*1273 FILLER_43_249
*1274 FILLER_43_261
*1275 FILLER_43_27
*1276 FILLER_43_273
*1277 FILLER_43_279
*1278 FILLER_43_281
*1279 FILLER_43_293
*1280 FILLER_43_3
*1281 FILLER_43_39
*1282 FILLER_43_51
*1283 FILLER_43_55
*1284 FILLER_43_57
*1285 FILLER_43_69
*1286 FILLER_43_81
*1287 FILLER_43_93
*1288 FILLER_44_10
*1289 FILLER_44_109
*1290 FILLER_44_121
*1291 FILLER_44_133
*1292 FILLER_44_139
*1293 FILLER_44_141
*1294 FILLER_44_153
*1295 FILLER_44_165
*1296 FILLER_44_177
*1297 FILLER_44_189
*1298 FILLER_44_195
*1299 FILLER_44_197
*1300 FILLER_44_209
*1301 FILLER_44_22
*1302 FILLER_44_221
*1303 FILLER_44_233
*1304 FILLER_44_245
*1305 FILLER_44_251
*1306 FILLER_44_253
*1307 FILLER_44_265
*1308 FILLER_44_277
*1309 FILLER_44_289
*1310 FILLER_44_29
*1311 FILLER_44_297
*1312 FILLER_44_3
*1313 FILLER_44_41
*1314 FILLER_44_53
*1315 FILLER_44_65
*1316 FILLER_44_77
*1317 FILLER_44_83
*1318 FILLER_44_85
*1319 FILLER_44_97
*1320 FILLER_45_105
*1321 FILLER_45_111
*1322 FILLER_45_113
*1323 FILLER_45_125
*1324 FILLER_45_137
*1325 FILLER_45_149
*1326 FILLER_45_15
*1327 FILLER_45_161
*1328 FILLER_45_167
*1329 FILLER_45_169
*1330 FILLER_45_181
*1331 FILLER_45_193
*1332 FILLER_45_205
*1333 FILLER_45_217
*1334 FILLER_45_223
*1335 FILLER_45_225
*1336 FILLER_45_237
*1337 FILLER_45_249
*1338 FILLER_45_261
*1339 FILLER_45_27
*1340 FILLER_45_273
*1341 FILLER_45_279
*1342 FILLER_45_281
*1343 FILLER_45_293
*1344 FILLER_45_3
*1345 FILLER_45_39
*1346 FILLER_45_51
*1347 FILLER_45_55
*1348 FILLER_45_57
*1349 FILLER_45_69
*1350 FILLER_45_81
*1351 FILLER_45_93
*1352 FILLER_46_109
*1353 FILLER_46_121
*1354 FILLER_46_133
*1355 FILLER_46_139
*1356 FILLER_46_141
*1357 FILLER_46_15
*1358 FILLER_46_153
*1359 FILLER_46_165
*1360 FILLER_46_177
*1361 FILLER_46_189
*1362 FILLER_46_195
*1363 FILLER_46_197
*1364 FILLER_46_209
*1365 FILLER_46_221
*1366 FILLER_46_233
*1367 FILLER_46_245
*1368 FILLER_46_251
*1369 FILLER_46_253
*1370 FILLER_46_265
*1371 FILLER_46_27
*1372 FILLER_46_277
*1373 FILLER_46_289
*1374 FILLER_46_29
*1375 FILLER_46_297
*1376 FILLER_46_3
*1377 FILLER_46_41
*1378 FILLER_46_53
*1379 FILLER_46_65
*1380 FILLER_46_77
*1381 FILLER_46_83
*1382 FILLER_46_85
*1383 FILLER_46_97
*1384 FILLER_47_105
*1385 FILLER_47_111
*1386 FILLER_47_113
*1387 FILLER_47_125
*1388 FILLER_47_137
*1389 FILLER_47_149
*1390 FILLER_47_15
*1391 FILLER_47_161
*1392 FILLER_47_167
*1393 FILLER_47_169
*1394 FILLER_47_181
*1395 FILLER_47_193
*1396 FILLER_47_205
*1397 FILLER_47_217
*1398 FILLER_47_223
*1399 FILLER_47_225
*1400 FILLER_47_237
*1401 FILLER_47_249
*1402 FILLER_47_261
*1403 FILLER_47_27
*1404 FILLER_47_273
*1405 FILLER_47_279
*1406 FILLER_47_281
*1407 FILLER_47_293
*1408 FILLER_47_3
*1409 FILLER_47_39
*1410 FILLER_47_51
*1411 FILLER_47_55
*1412 FILLER_47_57
*1413 FILLER_47_69
*1414 FILLER_47_81
*1415 FILLER_47_93
*1416 FILLER_48_109
*1417 FILLER_48_121
*1418 FILLER_48_133
*1419 FILLER_48_139
*1420 FILLER_48_141
*1421 FILLER_48_15
*1422 FILLER_48_153
*1423 FILLER_48_165
*1424 FILLER_48_177
*1425 FILLER_48_189
*1426 FILLER_48_195
*1427 FILLER_48_197
*1428 FILLER_48_209
*1429 FILLER_48_221
*1430 FILLER_48_233
*1431 FILLER_48_245
*1432 FILLER_48_251
*1433 FILLER_48_253
*1434 FILLER_48_265
*1435 FILLER_48_27
*1436 FILLER_48_277
*1437 FILLER_48_289
*1438 FILLER_48_29
*1439 FILLER_48_297
*1440 FILLER_48_3
*1441 FILLER_48_41
*1442 FILLER_48_53
*1443 FILLER_48_65
*1444 FILLER_48_77
*1445 FILLER_48_83
*1446 FILLER_48_85
*1447 FILLER_48_97
*1448 FILLER_49_105
*1449 FILLER_49_111
*1450 FILLER_49_113
*1451 FILLER_49_125
*1452 FILLER_49_137
*1453 FILLER_49_149
*1454 FILLER_49_15
*1455 FILLER_49_161
*1456 FILLER_49_167
*1457 FILLER_49_169
*1458 FILLER_49_181
*1459 FILLER_49_193
*1460 FILLER_49_205
*1461 FILLER_49_217
*1462 FILLER_49_223
*1463 FILLER_49_225
*1464 FILLER_49_237
*1465 FILLER_49_249
*1466 FILLER_49_261
*1467 FILLER_49_27
*1468 FILLER_49_273
*1469 FILLER_49_279
*1470 FILLER_49_281
*1471 FILLER_49_293
*1472 FILLER_49_3
*1473 FILLER_49_39
*1474 FILLER_49_51
*1475 FILLER_49_55
*1476 FILLER_49_57
*1477 FILLER_49_69
*1478 FILLER_49_81
*1479 FILLER_49_93
*1480 FILLER_4_109
*1481 FILLER_4_121
*1482 FILLER_4_133
*1483 FILLER_4_139
*1484 FILLER_4_141
*1485 FILLER_4_153
*1486 FILLER_4_165
*1487 FILLER_4_177
*1488 FILLER_4_189
*1489 FILLER_4_195
*1490 FILLER_4_197
*1491 FILLER_4_209
*1492 FILLER_4_221
*1493 FILLER_4_233
*1494 FILLER_4_24
*1495 FILLER_4_245
*1496 FILLER_4_251
*1497 FILLER_4_253
*1498 FILLER_4_265
*1499 FILLER_4_277
*1500 FILLER_4_289
*1501 FILLER_4_29
*1502 FILLER_4_297
*1503 FILLER_4_3
*1504 FILLER_4_36
*1505 FILLER_4_42
*1506 FILLER_4_46
*1507 FILLER_4_58
*1508 FILLER_4_7
*1509 FILLER_4_70
*1510 FILLER_4_82
*1511 FILLER_4_85
*1512 FILLER_4_97
*1513 FILLER_50_109
*1514 FILLER_50_121
*1515 FILLER_50_133
*1516 FILLER_50_139
*1517 FILLER_50_141
*1518 FILLER_50_15
*1519 FILLER_50_153
*1520 FILLER_50_165
*1521 FILLER_50_177
*1522 FILLER_50_189
*1523 FILLER_50_195
*1524 FILLER_50_197
*1525 FILLER_50_209
*1526 FILLER_50_221
*1527 FILLER_50_233
*1528 FILLER_50_245
*1529 FILLER_50_251
*1530 FILLER_50_253
*1531 FILLER_50_265
*1532 FILLER_50_27
*1533 FILLER_50_277
*1534 FILLER_50_289
*1535 FILLER_50_29
*1536 FILLER_50_297
*1537 FILLER_50_3
*1538 FILLER_50_41
*1539 FILLER_50_53
*1540 FILLER_50_65
*1541 FILLER_50_77
*1542 FILLER_50_83
*1543 FILLER_50_85
*1544 FILLER_50_97
*1545 FILLER_51_105
*1546 FILLER_51_11
*1547 FILLER_51_111
*1548 FILLER_51_113
*1549 FILLER_51_125
*1550 FILLER_51_137
*1551 FILLER_51_149
*1552 FILLER_51_16
*1553 FILLER_51_161
*1554 FILLER_51_167
*1555 FILLER_51_169
*1556 FILLER_51_181
*1557 FILLER_51_193
*1558 FILLER_51_205
*1559 FILLER_51_217
*1560 FILLER_51_223
*1561 FILLER_51_225
*1562 FILLER_51_237
*1563 FILLER_51_249
*1564 FILLER_51_261
*1565 FILLER_51_273
*1566 FILLER_51_279
*1567 FILLER_51_28
*1568 FILLER_51_281
*1569 FILLER_51_293
*1570 FILLER_51_3
*1571 FILLER_51_40
*1572 FILLER_51_52
*1573 FILLER_51_57
*1574 FILLER_51_69
*1575 FILLER_51_81
*1576 FILLER_51_93
*1577 FILLER_52_109
*1578 FILLER_52_121
*1579 FILLER_52_133
*1580 FILLER_52_139
*1581 FILLER_52_141
*1582 FILLER_52_15
*1583 FILLER_52_153
*1584 FILLER_52_165
*1585 FILLER_52_177
*1586 FILLER_52_189
*1587 FILLER_52_195
*1588 FILLER_52_197
*1589 FILLER_52_209
*1590 FILLER_52_221
*1591 FILLER_52_233
*1592 FILLER_52_245