*SPEF "ieee 1481-1999"
*DESIGN "robbertvanginkel_hamming74"
*DATE "11:11:11 Fri 11 11, 1111"
*VENDOR "OpenRCX"
*PROGRAM "Parallel Extraction"
*VERSION "1.0"
*DESIGN_FLOW "NAME_SCOPE LOCAL" "PIN_CAP NONE"
*DIVIDER /
*DELIMITER :
*BUS_DELIMITER []
*T_UNIT 1 NS
*C_UNIT 1 PF
*R_UNIT 1 OHM
*L_UNIT 1 HENRY

*NAME_MAP
*1 io_in[0]
*2 io_in[1]
*3 io_in[2]
*4 io_in[3]
*5 io_in[4]
*6 io_in[5]
*7 io_in[6]
*8 io_in[7]
*9 io_out[0]
*10 io_out[1]
*11 io_out[2]
*12 io_out[3]
*13 io_out[4]
*14 io_out[5]
*15 io_out[6]
*16 net8
*19 _00_
*20 _01_
*21 _02_
*22 _03_
*23 _04_
*24 _05_
*25 _06_
*26 _07_
*27 _08_
*28 _09_
*29 _10_
*30 _11_
*31 _12_
*32 _13_
*33 _14_
*34 _15_
*35 _16_
*36 _17_
*37 _18_
*38 _19_
*39 _20_
*40 _21_
*41 _22_
*42 _23_
*43 _24_
*44 _25_
*45 _26_
*46 _27_
*47 _28_
*48 _29_
*49 _30_
*50 _31_
*51 clknet_0__00_
*52 clknet_0__01_
*53 clknet_0__02_
*54 clknet_0__12_
*55 clknet_0__13_
*56 clknet_0_io_in[0]
*57 clknet_1_0__leaf__00_
*58 clknet_1_0__leaf__01_
*59 clknet_1_0__leaf__02_
*60 clknet_1_0__leaf__12_
*61 clknet_1_0__leaf__13_
*62 clknet_1_0__leaf_io_in[0]
*63 clknet_1_1__leaf__00_
*64 clknet_1_1__leaf__01_
*65 clknet_1_1__leaf__02_
*66 clknet_1_1__leaf__12_
*67 clknet_1_1__leaf__13_
*68 clknet_1_1__leaf_io_in[0]
*69 net1
*70 net2
*71 net3
*72 net4
*73 net5
*74 net6
*75 net7
*76 FILLER_0_109
*77 FILLER_0_113
*78 FILLER_0_125
*79 FILLER_0_137
*80 FILLER_0_141
*81 FILLER_0_15
*82 FILLER_0_153
*83 FILLER_0_165
*84 FILLER_0_169
*85 FILLER_0_181
*86 FILLER_0_193
*87 FILLER_0_197
*88 FILLER_0_209
*89 FILLER_0_221
*90 FILLER_0_225
*91 FILLER_0_237
*92 FILLER_0_249
*93 FILLER_0_253
*94 FILLER_0_265
*95 FILLER_0_27
*96 FILLER_0_277
*97 FILLER_0_281
*98 FILLER_0_29
*99 FILLER_0_293
*100 FILLER_0_3
*101 FILLER_0_41
*102 FILLER_0_53
*103 FILLER_0_57
*104 FILLER_0_69
*105 FILLER_0_81
*106 FILLER_0_85
*107 FILLER_0_97
*108 FILLER_10_109
*109 FILLER_10_121
*110 FILLER_10_133
*111 FILLER_10_139
*112 FILLER_10_141
*113 FILLER_10_15
*114 FILLER_10_153
*115 FILLER_10_165
*116 FILLER_10_177
*117 FILLER_10_189
*118 FILLER_10_195
*119 FILLER_10_197
*120 FILLER_10_209
*121 FILLER_10_221
*122 FILLER_10_233
*123 FILLER_10_245
*124 FILLER_10_251
*125 FILLER_10_253
*126 FILLER_10_265
*127 FILLER_10_27
*128 FILLER_10_277
*129 FILLER_10_289
*130 FILLER_10_29
*131 FILLER_10_297
*132 FILLER_10_3
*133 FILLER_10_41
*134 FILLER_10_53
*135 FILLER_10_65
*136 FILLER_10_77
*137 FILLER_10_83
*138 FILLER_10_85
*139 FILLER_10_97
*140 FILLER_11_105
*141 FILLER_11_111
*142 FILLER_11_113
*143 FILLER_11_125
*144 FILLER_11_137
*145 FILLER_11_149
*146 FILLER_11_15
*147 FILLER_11_161
*148 FILLER_11_167
*149 FILLER_11_169
*150 FILLER_11_181
*151 FILLER_11_193
*152 FILLER_11_205
*153 FILLER_11_217
*154 FILLER_11_223
*155 FILLER_11_225
*156 FILLER_11_237
*157 FILLER_11_249
*158 FILLER_11_261
*159 FILLER_11_27
*160 FILLER_11_273
*161 FILLER_11_279
*162 FILLER_11_281
*163 FILLER_11_293
*164 FILLER_11_3
*165 FILLER_11_39
*166 FILLER_11_51
*167 FILLER_11_55
*168 FILLER_11_57
*169 FILLER_11_69
*170 FILLER_11_81
*171 FILLER_11_93
*172 FILLER_12_109
*173 FILLER_12_121
*174 FILLER_12_133
*175 FILLER_12_139
*176 FILLER_12_141
*177 FILLER_12_153
*178 FILLER_12_165
*179 FILLER_12_177
*180 FILLER_12_189
*181 FILLER_12_195
*182 FILLER_12_197
*183 FILLER_12_209
*184 FILLER_12_21
*185 FILLER_12_221
*186 FILLER_12_233
*187 FILLER_12_245
*188 FILLER_12_251
*189 FILLER_12_253
*190 FILLER_12_265
*191 FILLER_12_27
*192 FILLER_12_277
*193 FILLER_12_289
*194 FILLER_12_29
*195 FILLER_12_297
*196 FILLER_12_3
*197 FILLER_12_41
*198 FILLER_12_53
*199 FILLER_12_65
*200 FILLER_12_77
*201 FILLER_12_83
*202 FILLER_12_85
*203 FILLER_12_9
*204 FILLER_12_97
*205 FILLER_13_105
*206 FILLER_13_111
*207 FILLER_13_113
*208 FILLER_13_125
*209 FILLER_13_137
*210 FILLER_13_149
*211 FILLER_13_15
*212 FILLER_13_161
*213 FILLER_13_167
*214 FILLER_13_169
*215 FILLER_13_181
*216 FILLER_13_193
*217 FILLER_13_205
*218 FILLER_13_217
*219 FILLER_13_223
*220 FILLER_13_225
*221 FILLER_13_237
*222 FILLER_13_249
*223 FILLER_13_261
*224 FILLER_13_27
*225 FILLER_13_273
*226 FILLER_13_279
*227 FILLER_13_281
*228 FILLER_13_293
*229 FILLER_13_3
*230 FILLER_13_39
*231 FILLER_13_51
*232 FILLER_13_55
*233 FILLER_13_57
*234 FILLER_13_69
*235 FILLER_13_81
*236 FILLER_13_93
*237 FILLER_14_109
*238 FILLER_14_121
*239 FILLER_14_133
*240 FILLER_14_139
*241 FILLER_14_141
*242 FILLER_14_15
*243 FILLER_14_153
*244 FILLER_14_165
*245 FILLER_14_177
*246 FILLER_14_189
*247 FILLER_14_195
*248 FILLER_14_197
*249 FILLER_14_209
*250 FILLER_14_221
*251 FILLER_14_233
*252 FILLER_14_245
*253 FILLER_14_251
*254 FILLER_14_253
*255 FILLER_14_265
*256 FILLER_14_27
*257 FILLER_14_277
*258 FILLER_14_289
*259 FILLER_14_29
*260 FILLER_14_297
*261 FILLER_14_3
*262 FILLER_14_41
*263 FILLER_14_53
*264 FILLER_14_65
*265 FILLER_14_77
*266 FILLER_14_83
*267 FILLER_14_85
*268 FILLER_14_97
*269 FILLER_15_105
*270 FILLER_15_111
*271 FILLER_15_113
*272 FILLER_15_125
*273 FILLER_15_137
*274 FILLER_15_149
*275 FILLER_15_15
*276 FILLER_15_161
*277 FILLER_15_167
*278 FILLER_15_169
*279 FILLER_15_181
*280 FILLER_15_193
*281 FILLER_15_205
*282 FILLER_15_217
*283 FILLER_15_223
*284 FILLER_15_225
*285 FILLER_15_237
*286 FILLER_15_249
*287 FILLER_15_261
*288 FILLER_15_27
*289 FILLER_15_273
*290 FILLER_15_279
*291 FILLER_15_281
*292 FILLER_15_293
*293 FILLER_15_3
*294 FILLER_15_39
*295 FILLER_15_51
*296 FILLER_15_55
*297 FILLER_15_57
*298 FILLER_15_69
*299 FILLER_15_81
*300 FILLER_15_93
*301 FILLER_16_109
*302 FILLER_16_121
*303 FILLER_16_133
*304 FILLER_16_139
*305 FILLER_16_141
*306 FILLER_16_153
*307 FILLER_16_165
*308 FILLER_16_177
*309 FILLER_16_189
*310 FILLER_16_195
*311 FILLER_16_197
*312 FILLER_16_209
*313 FILLER_16_21
*314 FILLER_16_221
*315 FILLER_16_233
*316 FILLER_16_245
*317 FILLER_16_251
*318 FILLER_16_253
*319 FILLER_16_265
*320 FILLER_16_27
*321 FILLER_16_277
*322 FILLER_16_289
*323 FILLER_16_29
*324 FILLER_16_297
*325 FILLER_16_3
*326 FILLER_16_41
*327 FILLER_16_53
*328 FILLER_16_65
*329 FILLER_16_77
*330 FILLER_16_83
*331 FILLER_16_85
*332 FILLER_16_9
*333 FILLER_16_97
*334 FILLER_17_105
*335 FILLER_17_111
*336 FILLER_17_113
*337 FILLER_17_125
*338 FILLER_17_137
*339 FILLER_17_149
*340 FILLER_17_15
*341 FILLER_17_161
*342 FILLER_17_167
*343 FILLER_17_169
*344 FILLER_17_181
*345 FILLER_17_193
*346 FILLER_17_205
*347 FILLER_17_217
*348 FILLER_17_223
*349 FILLER_17_225
*350 FILLER_17_237
*351 FILLER_17_249
*352 FILLER_17_261
*353 FILLER_17_27
*354 FILLER_17_273
*355 FILLER_17_279
*356 FILLER_17_281
*357 FILLER_17_293
*358 FILLER_17_3
*359 FILLER_17_39
*360 FILLER_17_51
*361 FILLER_17_55
*362 FILLER_17_57
*363 FILLER_17_69
*364 FILLER_17_81
*365 FILLER_17_93
*366 FILLER_18_109
*367 FILLER_18_121
*368 FILLER_18_133
*369 FILLER_18_139
*370 FILLER_18_141
*371 FILLER_18_15
*372 FILLER_18_153
*373 FILLER_18_165
*374 FILLER_18_177
*375 FILLER_18_189
*376 FILLER_18_195
*377 FILLER_18_197
*378 FILLER_18_209
*379 FILLER_18_221
*380 FILLER_18_233
*381 FILLER_18_245
*382 FILLER_18_251
*383 FILLER_18_253
*384 FILLER_18_265
*385 FILLER_18_27
*386 FILLER_18_277
*387 FILLER_18_289
*388 FILLER_18_29
*389 FILLER_18_297
*390 FILLER_18_3
*391 FILLER_18_41
*392 FILLER_18_53
*393 FILLER_18_65
*394 FILLER_18_77
*395 FILLER_18_83
*396 FILLER_18_85
*397 FILLER_18_97
*398 FILLER_19_105
*399 FILLER_19_111
*400 FILLER_19_113
*401 FILLER_19_125
*402 FILLER_19_137
*403 FILLER_19_149
*404 FILLER_19_161
*405 FILLER_19_167
*406 FILLER_19_169
*407 FILLER_19_181
*408 FILLER_19_193
*409 FILLER_19_205
*410 FILLER_19_217
*411 FILLER_19_223
*412 FILLER_19_225
*413 FILLER_19_237
*414 FILLER_19_249
*415 FILLER_19_261
*416 FILLER_19_27
*417 FILLER_19_273
*418 FILLER_19_279
*419 FILLER_19_281
*420 FILLER_19_293
*421 FILLER_19_3
*422 FILLER_19_39
*423 FILLER_19_51
*424 FILLER_19_55
*425 FILLER_19_57
*426 FILLER_19_69
*427 FILLER_19_81
*428 FILLER_19_93
*429 FILLER_1_105
*430 FILLER_1_111
*431 FILLER_1_113
*432 FILLER_1_125
*433 FILLER_1_137
*434 FILLER_1_149
*435 FILLER_1_15
*436 FILLER_1_161
*437 FILLER_1_167
*438 FILLER_1_169
*439 FILLER_1_181
*440 FILLER_1_193
*441 FILLER_1_205
*442 FILLER_1_217
*443 FILLER_1_223
*444 FILLER_1_225
*445 FILLER_1_237
*446 FILLER_1_249
*447 FILLER_1_261
*448 FILLER_1_27
*449 FILLER_1_273
*450 FILLER_1_279
*451 FILLER_1_281
*452 FILLER_1_293
*453 FILLER_1_3
*454 FILLER_1_39
*455 FILLER_1_51
*456 FILLER_1_55
*457 FILLER_1_57
*458 FILLER_1_69
*459 FILLER_1_81
*460 FILLER_1_93
*461 FILLER_20_109
*462 FILLER_20_121
*463 FILLER_20_13
*464 FILLER_20_133
*465 FILLER_20_139
*466 FILLER_20_141
*467 FILLER_20_153
*468 FILLER_20_165
*469 FILLER_20_177
*470 FILLER_20_189
*471 FILLER_20_195
*472 FILLER_20_197
*473 FILLER_20_209
*474 FILLER_20_21
*475 FILLER_20_221
*476 FILLER_20_233
*477 FILLER_20_245
*478 FILLER_20_251
*479 FILLER_20_253
*480 FILLER_20_265
*481 FILLER_20_27
*482 FILLER_20_277
*483 FILLER_20_289
*484 FILLER_20_29
*485 FILLER_20_297
*486 FILLER_20_3
*487 FILLER_20_41
*488 FILLER_20_53
*489 FILLER_20_65
*490 FILLER_20_7
*491 FILLER_20_77
*492 FILLER_20_83
*493 FILLER_20_85
*494 FILLER_20_97
*495 FILLER_21_105
*496 FILLER_21_111
*497 FILLER_21_113
*498 FILLER_21_125
*499 FILLER_21_137
*500 FILLER_21_149
*501 FILLER_21_161
*502 FILLER_21_167
*503 FILLER_21_169
*504 FILLER_21_181
*505 FILLER_21_193
*506 FILLER_21_205
*507 FILLER_21_217
*508 FILLER_21_223
*509 FILLER_21_225
*510 FILLER_21_237
*511 FILLER_21_249
*512 FILLER_21_261
*513 FILLER_21_27
*514 FILLER_21_273
*515 FILLER_21_279
*516 FILLER_21_281
*517 FILLER_21_293
*518 FILLER_21_3
*519 FILLER_21_39
*520 FILLER_21_51
*521 FILLER_21_55
*522 FILLER_21_57
*523 FILLER_21_69
*524 FILLER_21_81
*525 FILLER_21_93
*526 FILLER_22_109
*527 FILLER_22_121
*528 FILLER_22_133
*529 FILLER_22_139
*530 FILLER_22_141
*531 FILLER_22_15
*532 FILLER_22_153
*533 FILLER_22_165
*534 FILLER_22_177
*535 FILLER_22_189
*536 FILLER_22_195
*537 FILLER_22_197
*538 FILLER_22_209
*539 FILLER_22_22
*540 FILLER_22_221
*541 FILLER_22_233
*542 FILLER_22_245
*543 FILLER_22_251
*544 FILLER_22_253
*545 FILLER_22_265
*546 FILLER_22_277
*547 FILLER_22_289
*548 FILLER_22_29
*549 FILLER_22_297
*550 FILLER_22_3
*551 FILLER_22_37
*552 FILLER_22_62
*553 FILLER_22_74
*554 FILLER_22_82
*555 FILLER_22_85
*556 FILLER_22_9
*557 FILLER_22_97
*558 FILLER_23_105
*559 FILLER_23_111
*560 FILLER_23_113
*561 FILLER_23_125
*562 FILLER_23_137
*563 FILLER_23_149
*564 FILLER_23_161
*565 FILLER_23_167
*566 FILLER_23_169
*567 FILLER_23_17
*568 FILLER_23_181
*569 FILLER_23_193
*570 FILLER_23_205
*571 FILLER_23_217
*572 FILLER_23_223
*573 FILLER_23_225
*574 FILLER_23_237
*575 FILLER_23_24
*576 FILLER_23_249
*577 FILLER_23_261
*578 FILLER_23_273
*579 FILLER_23_279
*580 FILLER_23_281
*581 FILLER_23_293
*582 FILLER_23_3
*583 FILLER_23_36
*584 FILLER_23_48
*585 FILLER_23_57
*586 FILLER_23_69
*587 FILLER_23_81
*588 FILLER_23_9
*589 FILLER_23_93
*590 FILLER_24_109
*591 FILLER_24_121
*592 FILLER_24_133
*593 FILLER_24_139
*594 FILLER_24_141
*595 FILLER_24_153
*596 FILLER_24_165
*597 FILLER_24_177
*598 FILLER_24_18
*599 FILLER_24_189
*600 FILLER_24_195
*601 FILLER_24_197
*602 FILLER_24_209
*603 FILLER_24_221
*604 FILLER_24_233
*605 FILLER_24_245
*606 FILLER_24_25
*607 FILLER_24_251
*608 FILLER_24_253
*609 FILLER_24_265
*610 FILLER_24_277
*611 FILLER_24_289
*612 FILLER_24_29
*613 FILLER_24_297
*614 FILLER_24_3
*615 FILLER_24_34
*616 FILLER_24_46
*617 FILLER_24_58
*618 FILLER_24_70
*619 FILLER_24_82
*620 FILLER_24_85
*621 FILLER_24_97
*622 FILLER_25_105
*623 FILLER_25_111
*624 FILLER_25_113
*625 FILLER_25_12
*626 FILLER_25_125
*627 FILLER_25_137
*628 FILLER_25_149
*629 FILLER_25_161
*630 FILLER_25_167
*631 FILLER_25_169
*632 FILLER_25_181
*633 FILLER_25_193
*634 FILLER_25_20
*635 FILLER_25_205
*636 FILLER_25_217
*637 FILLER_25_223
*638 FILLER_25_225
*639 FILLER_25_237
*640 FILLER_25_249
*641 FILLER_25_261
*642 FILLER_25_273
*643 FILLER_25_279
*644 FILLER_25_281
*645 FILLER_25_293
*646 FILLER_25_3
*647 FILLER_25_44
*648 FILLER_25_57
*649 FILLER_25_69
*650 FILLER_25_81
*651 FILLER_25_93
*652 FILLER_26_109
*653 FILLER_26_121
*654 FILLER_26_133
*655 FILLER_26_139
*656 FILLER_26_141
*657 FILLER_26_153
*658 FILLER_26_165
*659 FILLER_26_177
*660 FILLER_26_189
*661 FILLER_26_195
*662 FILLER_26_197
*663 FILLER_26_209
*664 FILLER_26_221
*665 FILLER_26_233
*666 FILLER_26_245
*667 FILLER_26_25
*668 FILLER_26_251
*669 FILLER_26_253
*670 FILLER_26_265
*671 FILLER_26_277
*672 FILLER_26_289
*673 FILLER_26_29
*674 FILLER_26_297
*675 FILLER_26_3
*676 FILLER_26_36
*677 FILLER_26_43
*678 FILLER_26_55
*679 FILLER_26_67
*680 FILLER_26_79
*681 FILLER_26_83
*682 FILLER_26_85
*683 FILLER_26_97
*684 FILLER_27_105
*685 FILLER_27_111
*686 FILLER_27_113
*687 FILLER_27_125
*688 FILLER_27_137
*689 FILLER_27_149
*690 FILLER_27_161
*691 FILLER_27_167
*692 FILLER_27_169
*693 FILLER_27_181
*694 FILLER_27_193
*695 FILLER_27_205
*696 FILLER_27_217
*697 FILLER_27_223
*698 FILLER_27_225
*699 FILLER_27_237
*700 FILLER_27_249
*701 FILLER_27_25
*702 FILLER_27_261
*703 FILLER_27_273
*704 FILLER_27_279
*705 FILLER_27_281
*706 FILLER_27_293
*707 FILLER_27_3
*708 FILLER_27_49
*709 FILLER_27_55
*710 FILLER_27_57
*711 FILLER_27_69
*712 FILLER_27_81
*713 FILLER_27_93
*714 FILLER_28_109
*715 FILLER_28_121
*716 FILLER_28_133
*717 FILLER_28_139
*718 FILLER_28_141
*719 FILLER_28_153
*720 FILLER_28_165
*721 FILLER_28_177
*722 FILLER_28_189
*723 FILLER_28_195
*724 FILLER_28_197
*725 FILLER_28_209
*726 FILLER_28_221
*727 FILLER_28_233
*728 FILLER_28_245
*729 FILLER_28_25
*730 FILLER_28_251
*731 FILLER_28_253
*732 FILLER_28_265
*733 FILLER_28_277
*734 FILLER_28_289
*735 FILLER_28_29
*736 FILLER_28_297
*737 FILLER_28_3
*738 FILLER_28_41
*739 FILLER_28_53
*740 FILLER_28_65
*741 FILLER_28_77
*742 FILLER_28_83
*743 FILLER_28_85
*744 FILLER_28_97
*745 FILLER_29_105
*746 FILLER_29_111
*747 FILLER_29_113
*748 FILLER_29_12
*749 FILLER_29_125
*750 FILLER_29_137
*751 FILLER_29_149
*752 FILLER_29_161
*753 FILLER_29_167
*754 FILLER_29_169
*755 FILLER_29_181
*756 FILLER_29_193
*757 FILLER_29_205
*758 FILLER_29_217
*759 FILLER_29_223
*760 FILLER_29_225
*761 FILLER_29_237
*762 FILLER_29_249
*763 FILLER_29_261
*764 FILLER_29_273
*765 FILLER_29_279
*766 FILLER_29_281
*767 FILLER_29_293
*768 FILLER_29_3
*769 FILLER_29_36
*770 FILLER_29_45
*771 FILLER_29_53
*772 FILLER_29_57
*773 FILLER_29_69
*774 FILLER_29_81
*775 FILLER_29_93
*776 FILLER_2_109
*777 FILLER_2_121
*778 FILLER_2_133
*779 FILLER_2_139
*780 FILLER_2_141
*781 FILLER_2_15
*782 FILLER_2_153
*783 FILLER_2_165
*784 FILLER_2_177
*785 FILLER_2_189
*786 FILLER_2_195
*787 FILLER_2_197
*788 FILLER_2_209
*789 FILLER_2_221
*790 FILLER_2_233
*791 FILLER_2_245
*792 FILLER_2_251
*793 FILLER_2_253
*794 FILLER_2_265
*795 FILLER_2_27
*796 FILLER_2_277
*797 FILLER_2_289
*798 FILLER_2_29
*799 FILLER_2_297
*800 FILLER_2_3
*801 FILLER_2_41
*802 FILLER_2_53
*803 FILLER_2_65
*804 FILLER_2_77
*805 FILLER_2_83
*806 FILLER_2_85
*807 FILLER_2_97
*808 FILLER_30_109
*809 FILLER_30_121
*810 FILLER_30_133
*811 FILLER_30_139
*812 FILLER_30_141
*813 FILLER_30_153
*814 FILLER_30_165
*815 FILLER_30_177
*816 FILLER_30_189
*817 FILLER_30_195
*818 FILLER_30_197
*819 FILLER_30_209
*820 FILLER_30_221
*821 FILLER_30_233
*822 FILLER_30_245
*823 FILLER_30_251
*824 FILLER_30_253
*825 FILLER_30_26
*826 FILLER_30_265
*827 FILLER_30_277
*828 FILLER_30_289
*829 FILLER_30_29
*830 FILLER_30_297
*831 FILLER_30_3
*832 FILLER_30_51
*833 FILLER_30_63
*834 FILLER_30_75
*835 FILLER_30_83
*836 FILLER_30_85
*837 FILLER_30_97
*838 FILLER_31_105
*839 FILLER_31_111
*840 FILLER_31_113
*841 FILLER_31_12
*842 FILLER_31_125
*843 FILLER_31_137
*844 FILLER_31_149
*845 FILLER_31_161
*846 FILLER_31_167
*847 FILLER_31_169
*848 FILLER_31_181
*849 FILLER_31_193
*850 FILLER_31_205
*851 FILLER_31_217
*852 FILLER_31_223
*853 FILLER_31_225
*854 FILLER_31_237
*855 FILLER_31_249
*856 FILLER_31_261
*857 FILLER_31_273
*858 FILLER_31_279
*859 FILLER_31_281
*860 FILLER_31_293
*861 FILLER_31_3
*862 FILLER_31_36
*863 FILLER_31_43
*864 FILLER_31_55
*865 FILLER_31_57
*866 FILLER_31_69
*867 FILLER_31_81
*868 FILLER_31_93
*869 FILLER_32_109
*870 FILLER_32_121
*871 FILLER_32_133
*872 FILLER_32_139
*873 FILLER_32_141
*874 FILLER_32_153
*875 FILLER_32_165
*876 FILLER_32_177
*877 FILLER_32_189
*878 FILLER_32_195
*879 FILLER_32_197
*880 FILLER_32_209
*881 FILLER_32_221
*882 FILLER_32_233
*883 FILLER_32_245
*884 FILLER_32_251
*885 FILLER_32_253
*886 FILLER_32_26
*887 FILLER_32_265
*888 FILLER_32_277
*889 FILLER_32_289
*890 FILLER_32_29
*891 FILLER_32_297
*892 FILLER_32_3
*893 FILLER_32_41
*894 FILLER_32_54
*895 FILLER_32_66
*896 FILLER_32_78
*897 FILLER_32_85
*898 FILLER_32_97
*899 FILLER_33_105
*900 FILLER_33_111
*901 FILLER_33_113
*902 FILLER_33_12
*903 FILLER_33_125
*904 FILLER_33_137
*905 FILLER_33_149
*906 FILLER_33_161
*907 FILLER_33_167
*908 FILLER_33_169
*909 FILLER_33_181
*910 FILLER_33_193
*911 FILLER_33_205
*912 FILLER_33_217
*913 FILLER_33_223
*914 FILLER_33_225
*915 FILLER_33_237
*916 FILLER_33_249
*917 FILLER_33_261
*918 FILLER_33_273
*919 FILLER_33_279
*920 FILLER_33_281
*921 FILLER_33_293
*922 FILLER_33_3
*923 FILLER_33_36
*924 FILLER_33_48
*925 FILLER_33_57
*926 FILLER_33_69
*927 FILLER_33_81
*928 FILLER_33_93
*929 FILLER_34_109
*930 FILLER_34_121
*931 FILLER_34_133
*932 FILLER_34_139
*933 FILLER_34_141
*934 FILLER_34_153
*935 FILLER_34_165
*936 FILLER_34_177
*937 FILLER_34_189
*938 FILLER_34_195
*939 FILLER_34_197
*940 FILLER_34_20
*941 FILLER_34_209
*942 FILLER_34_221
*943 FILLER_34_233
*944 FILLER_34_245
*945 FILLER_34_251
*946 FILLER_34_253
*947 FILLER_34_265
*948 FILLER_34_277
*949 FILLER_34_289
*950 FILLER_34_29
*951 FILLER_34_297
*952 FILLER_34_3
*953 FILLER_34_41
*954 FILLER_34_53
*955 FILLER_34_65
*956 FILLER_34_77
*957 FILLER_34_83
*958 FILLER_34_85
*959 FILLER_34_97
*960 FILLER_35_105
*961 FILLER_35_111
*962 FILLER_35_113
*963 FILLER_35_125
*964 FILLER_35_137
*965 FILLER_35_149
*966 FILLER_35_161
*967 FILLER_35_167
*968 FILLER_35_169
*969 FILLER_35_181
*970 FILLER_35_193
*971 FILLER_35_205
*972 FILLER_35_217
*973 FILLER_35_223
*974 FILLER_35_225
*975 FILLER_35_237
*976 FILLER_35_249
*977 FILLER_35_25
*978 FILLER_35_261
*979 FILLER_35_273
*980 FILLER_35_279
*981 FILLER_35_281
*982 FILLER_35_293
*983 FILLER_35_3
*984 FILLER_35_36
*985 FILLER_35_47
*986 FILLER_35_55
*987 FILLER_35_57
*988 FILLER_35_69
*989 FILLER_35_81
*990 FILLER_35_93
*991 FILLER_36_109
*992 FILLER_36_121
*993 FILLER_36_133
*994 FILLER_36_139
*995 FILLER_36_141
*996 FILLER_36_153
*997 FILLER_36_165
*998 FILLER_36_177
*999 FILLER_36_189
*1000 FILLER_36_195
*1001 FILLER_36_197
*1002 FILLER_36_209
*1003 FILLER_36_221
*1004 FILLER_36_233
*1005 FILLER_36_245
*1006 FILLER_36_25
*1007 FILLER_36_251
*1008 FILLER_36_253
*1009 FILLER_36_265
*1010 FILLER_36_277
*1011 FILLER_36_289
*1012 FILLER_36_29
*1013 FILLER_36_297
*1014 FILLER_36_3
*1015 FILLER_36_39
*1016 FILLER_36_51
*1017 FILLER_36_63
*1018 FILLER_36_75
*1019 FILLER_36_83
*1020 FILLER_36_85
*1021 FILLER_36_97
*1022 FILLER_37_105
*1023 FILLER_37_111
*1024 FILLER_37_113
*1025 FILLER_37_125
*1026 FILLER_37_137
*1027 FILLER_37_149
*1028 FILLER_37_15
*1029 FILLER_37_161
*1030 FILLER_37_167
*1031 FILLER_37_169
*1032 FILLER_37_181
*1033 FILLER_37_193
*1034 FILLER_37_205
*1035 FILLER_37_217
*1036 FILLER_37_223
*1037 FILLER_37_225
*1038 FILLER_37_237
*1039 FILLER_37_249
*1040 FILLER_37_261
*1041 FILLER_37_273
*1042 FILLER_37_279
*1043 FILLER_37_281
*1044 FILLER_37_293
*1045 FILLER_37_3
*1046 FILLER_37_41
*1047 FILLER_37_52
*1048 FILLER_37_57
*1049 FILLER_37_69
*1050 FILLER_37_81
*1051 FILLER_37_93
*1052 FILLER_38_109
*1053 FILLER_38_121
*1054 FILLER_38_133
*1055 FILLER_38_139
*1056 FILLER_38_141
*1057 FILLER_38_153
*1058 FILLER_38_165
*1059 FILLER_38_177
*1060 FILLER_38_189
*1061 FILLER_38_195
*1062 FILLER_38_197
*1063 FILLER_38_209
*1064 FILLER_38_221
*1065 FILLER_38_233
*1066 FILLER_38_24
*1067 FILLER_38_245
*1068 FILLER_38_251
*1069 FILLER_38_253
*1070 FILLER_38_265
*1071 FILLER_38_277
*1072 FILLER_38_289
*1073 FILLER_38_29
*1074 FILLER_38_297
*1075 FILLER_38_3
*1076 FILLER_38_39
*1077 FILLER_38_51
*1078 FILLER_38_63
*1079 FILLER_38_75
*1080 FILLER_38_83
*1081 FILLER_38_85
*1082 FILLER_38_97
*1083 FILLER_39_10
*1084 FILLER_39_105
*1085 FILLER_39_111
*1086 FILLER_39_113
*1087 FILLER_39_125
*1088 FILLER_39_137
*1089 FILLER_39_14
*1090 FILLER_39_149
*1091 FILLER_39_161
*1092 FILLER_39_167
*1093 FILLER_39_169
*1094 FILLER_39_181
*1095 FILLER_39_193
*1096 FILLER_39_205
*1097 FILLER_39_217
*1098 FILLER_39_223
*1099 FILLER_39_225
*1100 FILLER_39_237
*1101 FILLER_39_249
*1102 FILLER_39_261
*1103 FILLER_39_273
*1104 FILLER_39_279
*1105 FILLER_39_281
*1106 FILLER_39_293
*1107 FILLER_39_3
*1108 FILLER_39_35
*1109 FILLER_39_47
*1110 FILLER_39_55
*1111 FILLER_39_57
*1112 FILLER_39_69
*1113 FILLER_39_81
*1114 FILLER_39_93
*1115 FILLER_3_105
*1116 FILLER_3_111
*1117 FILLER_3_113
*1118 FILLER_3_125
*1119 FILLER_3_137
*1120 FILLER_3_149
*1121 FILLER_3_15
*1122 FILLER_3_161
*1123 FILLER_3_167
*1124 FILLER_3_169
*1125 FILLER_3_181
*1126 FILLER_3_193
*1127 FILLER_3_205
*1128 FILLER_3_217
*1129 FILLER_3_223
*1130 FILLER_3_225
*1131 FILLER_3_237
*1132 FILLER_3_249
*1133 FILLER_3_261
*1134 FILLER_3_27
*1135 FILLER_3_273
*1136 FILLER_3_279
*1137 FILLER_3_281
*1138 FILLER_3_293
*1139 FILLER_3_3
*1140 FILLER_3_39
*1141 FILLER_3_51
*1142 FILLER_3_55
*1143 FILLER_3_57
*1144 FILLER_3_69
*1145 FILLER_3_81
*1146 FILLER_3_93
*1147 FILLER_40_109
*1148 FILLER_40_121
*1149 FILLER_40_133
*1150 FILLER_40_139
*1151 FILLER_40_141
*1152 FILLER_40_153
*1153 FILLER_40_165
*1154 FILLER_40_177
*1155 FILLER_40_189
*1156 FILLER_40_195
*1157 FILLER_40_197
*1158 FILLER_40_209
*1159 FILLER_40_221
*1160 FILLER_40_233
*1161 FILLER_40_245
*1162 FILLER_40_25
*1163 FILLER_40_251
*1164 FILLER_40_253
*1165 FILLER_40_265
*1166 FILLER_40_277
*1167 FILLER_40_289
*1168 FILLER_40_29
*1169 FILLER_40_297
*1170 FILLER_40_3
*1171 FILLER_40_41
*1172 FILLER_40_53
*1173 FILLER_40_65
*1174 FILLER_40_77
*1175 FILLER_40_83
*1176 FILLER_40_85
*1177 FILLER_40_97
*1178 FILLER_41_105
*1179 FILLER_41_111
*1180 FILLER_41_113
*1181 FILLER_41_12
*1182 FILLER_41_125
*1183 FILLER_41_137
*1184 FILLER_41_149
*1185 FILLER_41_161
*1186 FILLER_41_167
*1187 FILLER_41_169
*1188 FILLER_41_181
*1189 FILLER_41_193
*1190 FILLER_41_205
*1191 FILLER_41_217
*1192 FILLER_41_223
*1193 FILLER_41_225
*1194 FILLER_41_237
*1195 FILLER_41_249
*1196 FILLER_41_261
*1197 FILLER_41_273
*1198 FILLER_41_279
*1199 FILLER_41_281
*1200 FILLER_41_293
*1201 FILLER_41_3
*1202 FILLER_41_36
*1203 FILLER_41_48
*1204 FILLER_41_57
*1205 FILLER_41_69
*1206 FILLER_41_81
*1207 FILLER_41_93
*1208 FILLER_42_109
*1209 FILLER_42_121
*1210 FILLER_42_133
*1211 FILLER_42_139
*1212 FILLER_42_141
*1213 FILLER_42_153
*1214 FILLER_42_165
*1215 FILLER_42_177
*1216 FILLER_42_189
*1217 FILLER_42_195
*1218 FILLER_42_197
*1219 FILLER_42_209
*1220 FILLER_42_221
*1221 FILLER_42_233
*1222 FILLER_42_245
*1223 FILLER_42_25
*1224 FILLER_42_251
*1225 FILLER_42_253
*1226 FILLER_42_265
*1227 FILLER_42_277
*1228 FILLER_42_289
*1229 FILLER_42_29
*1230 FILLER_42_297
*1231 FILLER_42_3
*1232 FILLER_42_38
*1233 FILLER_42_50
*1234 FILLER_42_62
*1235 FILLER_42_74
*1236 FILLER_42_82
*1237 FILLER_42_85
*1238 FILLER_42_97
*1239 FILLER_43_105
*1240 FILLER_43_111
*1241 FILLER_43_113
*1242 FILLER_43_125
*1243 FILLER_43_13
*1244 FILLER_43_137
*1245 FILLER_43_149
*1246 FILLER_43_161
*1247 FILLER_43_167
*1248 FILLER_43_169
*1249 FILLER_43_181
*1250 FILLER_43_193
*1251 FILLER_43_205
*1252 FILLER_43_217
*1253 FILLER_43_223
*1254 FILLER_43_225
*1255 FILLER_43_237
*1256 FILLER_43_249
*1257 FILLER_43_261
*1258 FILLER_43_273
*1259 FILLER_43_279
*1260 FILLER_43_281
*1261 FILLER_43_293
*1262 FILLER_43_3
*1263 FILLER_43_37
*1264 FILLER_43_49
*1265 FILLER_43_55
*1266 FILLER_43_57
*1267 FILLER_43_69
*1268 FILLER_43_81
*1269 FILLER_43_93
*1270 FILLER_44_109
*1271 FILLER_44_121
*1272 FILLER_44_133
*1273 FILLER_44_139
*1274 FILLER_44_141
*1275 FILLER_44_153
*1276 FILLER_44_165
*1277 FILLER_44_177
*1278 FILLER_44_189
*1279 FILLER_44_195
*1280 FILLER_44_197
*1281 FILLER_44_209
*1282 FILLER_44_221
*1283 FILLER_44_23
*1284 FILLER_44_233
*1285 FILLER_44_245
*1286 FILLER_44_251
*1287 FILLER_44_253
*1288 FILLER_44_265
*1289 FILLER_44_27
*1290 FILLER_44_277
*1291 FILLER_44_289
*1292 FILLER_44_29
*1293 FILLER_44_297
*1294 FILLER_44_3
*1295 FILLER_44_41
*1296 FILLER_44_53
*1297 FILLER_44_65
*1298 FILLER_44_77
*1299 FILLER_44_83
*1300 FILLER_44_85
*1301 FILLER_44_9
*1302 FILLER_44_97
*1303 FILLER_45_105
*1304 FILLER_45_111
*1305 FILLER_45_113
*1306 FILLER_45_125
*1307 FILLER_45_137
*1308 FILLER_45_14
*1309 FILLER_45_149
*1310 FILLER_45_161
*1311 FILLER_45_167
*1312 FILLER_45_169
*1313 FILLER_45_181
*1314 FILLER_45_193
*1315 FILLER_45_205
*1316 FILLER_45_217
*1317 FILLER_45_22
*1318 FILLER_45_223
*1319 FILLER_45_225
*1320 FILLER_45_237
*1321 FILLER_45_249
*1322 FILLER_45_261
*1323 FILLER_45_273
*1324 FILLER_45_279
*1325 FILLER_45_28
*1326 FILLER_45_281
*1327 FILLER_45_293
*1328 FILLER_45_3
*1329 FILLER_45_40
*1330 FILLER_45_52
*1331 FILLER_45_57
*1332 FILLER_45_69
*1333 FILLER_45_81
*1334 FILLER_45_93
*1335 FILLER_46_109
*1336 FILLER_46_121
*1337 FILLER_46_133
*1338 FILLER_46_139
*1339 FILLER_46_141
*1340 FILLER_46_15
*1341 FILLER_46_153
*1342 FILLER_46_165
*1343 FILLER_46_177
*1344 FILLER_46_189
*1345 FILLER_46_195
*1346 FILLER_46_197
*1347 FILLER_46_20
*1348 FILLER_46_209
*1349 FILLER_46_221
*1350 FILLER_46_233
*1351 FILLER_46_245
*1352 FILLER_46_251
*1353 FILLER_46_253
*1354 FILLER_46_265
*1355 FILLER_46_277
*1356 FILLER_46_289
*1357 FILLER_46_29
*1358 FILLER_46_297
*1359 FILLER_46_3
*1360 FILLER_46_41
*1361 FILLER_46_53
*1362 FILLER_46_65
*1363 FILLER_46_77
*1364 FILLER_46_83
*1365 FILLER_46_85
*1366 FILLER_46_97
*1367 FILLER_47_105
*1368 FILLER_47_111
*1369 FILLER_47_113
*1370 FILLER_47_125
*1371 FILLER_47_137
*1372 FILLER_47_149
*1373 FILLER_47_15
*1374 FILLER_47_161
*1375 FILLER_47_167
*1376 FILLER_47_169
*1377 FILLER_47_181
*1378 FILLER_47_193
*1379 FILLER_47_205
*1380 FILLER_47_217
*1381 FILLER_47_223
*1382 FILLER_47_225
*1383 FILLER_47_237
*1384 FILLER_47_249
*1385 FILLER_47_261
*1386 FILLER_47_27
*1387 FILLER_47_273
*1388 FILLER_47_279
*1389 FILLER_47_281
*1390 FILLER_47_293
*1391 FILLER_47_3
*1392 FILLER_47_39
*1393 FILLER_47_51
*1394 FILLER_47_55
*1395 FILLER_47_57
*1396 FILLER_47_69
*1397 FILLER_47_81
*1398 FILLER_47_93
*1399 FILLER_48_109
*1400 FILLER_48_121
*1401 FILLER_48_133
*1402 FILLER_48_139
*1403 FILLER_48_141
*1404 FILLER_48_15
*1405 FILLER_48_153
*1406 FILLER_48_165
*1407 FILLER_48_177
*1408 FILLER_48_189
*1409 FILLER_48_195
*1410 FILLER_48_197
*1411 FILLER_48_209
*1412 FILLER_48_221
*1413 FILLER_48_233
*1414 FILLER_48_245
*1415 FILLER_48_251
*1416 FILLER_48_253
*1417 FILLER_48_265
*1418 FILLER_48_27
*1419 FILLER_48_277
*1420 FILLER_48_289
*1421 FILLER_48_29
*1422 FILLER_48_297
*1423 FILLER_48_3
*1424 FILLER_48_41
*1425 FILLER_48_53
*1426 FILLER_48_65
*1427 FILLER_48_77
*1428 FILLER_48_83
*1429 FILLER_48_85
*1430 FILLER_48_97
*1431 FILLER_49_105
*1432 FILLER_49_111
*1433 FILLER_49_113
*1434 FILLER_49_125
*1435 FILLER_49_137
*1436 FILLER_49_149
*1437 FILLER_49_15
*1438 FILLER_49_161
*1439 FILLER_49_167
*1440 FILLER_49_169
*1441 FILLER_49_181
*1442 FILLER_49_193
*1443 FILLER_49_205
*1444 FILLER_49_217
*1445 FILLER_49_223
*1446 FILLER_49_225
*1447 FILLER_49_237
*1448 FILLER_49_249
*1449 FILLER_49_261
*1450 FILLER_49_27
*1451 FILLER_49_273
*1452 FILLER_49_279
*1453 FILLER_49_281
*1454 FILLER_49_293
*1455 FILLER_49_3
*1456 FILLER_49_39
*1457 FILLER_49_51
*1458 FILLER_49_55
*1459 FILLER_49_57
*1460 FILLER_49_69
*1461 FILLER_49_81
*1462 FILLER_49_93
*1463 FILLER_4_109
*1464 FILLER_4_121
*1465 FILLER_4_133
*1466 FILLER_4_139
*1467 FILLER_4_141
*1468 FILLER_4_15
*1469 FILLER_4_153
*1470 FILLER_4_165
*1471 FILLER_4_177
*1472 FILLER_4_189
*1473 FILLER_4_195
*1474 FILLER_4_197
*1475 FILLER_4_209
*1476 FILLER_4_221
*1477 FILLER_4_233
*1478 FILLER_4_245
*1479 FILLER_4_251
*1480 FILLER_4_253
*1481 FILLER_4_265
*1482 FILLER_4_27
*1483 FILLER_4_277
*1484 FILLER_4_289
*1485 FILLER_4_29
*1486 FILLER_4_297
*1487 FILLER_4_3
*1488 FILLER_4_41
*1489 FILLER_4_53
*1490 FILLER_4_65
*1491 FILLER_4_77
*1492 FILLER_4_83
*1493 FILLER_4_85
*1494 FILLER_4_97
*1495 FILLER_50_109
*1496 FILLER_50_121
*1497 FILLER_50_133
*1498 FILLER_50_139
*1499 FILLER_50_141
*1500 FILLER_50_15
*1501 FILLER_50_153
*1502 FILLER_50_165
*1503 FILLER_50_177
*1504 FILLER_50_189
*1505 FILLER_50_195
*1506 FILLER_50_197
*1507 FILLER_50_209
*1508 FILLER_50_221
*1509 FILLER_50_233
*1510 FILLER_50_245
*1511 FILLER_50_251
*1512 FILLER_50_253
*1513 FILLER_50_265
*1514 FILLER_50_27
*1515 FILLER_50_277
*1516 FILLER_50_289
*1517 FILLER_50_29
*1518 FILLER_50_297
*1519 FILLER_50_3
*1520 FILLER_50_41
*1521 FILLER_50_53
*1522 FILLER_50_65
*1523 FILLER_50_77
*1524 FILLER_50_83
*1525 FILLER_50_85
*1526 FILLER_50_97
*1527 FILLER_51_105
*1528 FILLER_51_111
*1529 FILLER_51_113
*1530 FILLER_51_125
*1531 FILLER_51_137
*1532 FILLER_51_149
*1533 FILLER_51_15
*1534 FILLER_51_161
*1535 FILLER_51_167
*1536 FILLER_51_169
*1537 FILLER_51_181
*1538 FILLER_51_193
*1539 FILLER_51_205
*1540 FILLER_51_217
*1541 FILLER_51_223
*1542 FILLER_51_225
*1543 FILLER_51_237
*1544 FILLER_51_249
*1545 FILLER_51_261
*1546 FILLER_51_27
*1547 FILLER_51_273
*1548 FILLER_51_279
*1549 FILLER_51_281
*1550 FILLER_51_293
*1551 FILLER_51_3
*1552 FILLER_51_39
*1553 FILLER_51_51
*1554 FILLER_51_55
*1555 FILLER_51_57
*1556 FILLER_51_69
*1557 FILLER_51_81
*1558 FILLER_51_93
*1559 FILLER_52_109
*1560 FILLER_52_121
*1561 FILLER_52_133
*1562 FILLER_52_139
*1563 FILLER_52_141
*1564 FILLER_52_15
*1565 FILLER_52_153
*1566 FILLER_52_165
*1567 FILLER_52_177
*1568 FILLER_52_189
*1569 FILLER_52_195
*1570 FILLER_52_197
*1571 FILLER_52_209
*1572 FILLER_52_221
*1573 FILLER_52_233
*1574 FILLER_52_245
*1575 FILLER_52_251
*1576 FILLER_52_253
*1577 FILLER_52_265
*1578 FILLER_52_27
*1579 FILLER_52_277
*1580 FILLER_52_289
*1581 FILLER_52_29
*1582 FILLER_52_297
*1583 FILLER_52_3
*1584 FILLER_52_41
*1585 FILLER_52_53
*1586 FILLER_52_65
*1587 FILLER_52_77
*1588 FILLER_52_83
*1589 FILLER_52_85
*1590 FILLER_52_97
*1591 FILLER_53_105
*1592 FILLER_53_111