*SPEF "ieee 1481-1999"
*DESIGN "rolfmobile99_alu_fsm_top"
*DATE "11:11:11 Fri 11 11, 1111"
*VENDOR "OpenRCX"
*PROGRAM "Parallel Extraction"
*VERSION "1.0"
*DESIGN_FLOW "NAME_SCOPE LOCAL" "PIN_CAP NONE"
*DIVIDER /
*DELIMITER :
*BUS_DELIMITER []
*T_UNIT 1 NS
*C_UNIT 1 PF
*R_UNIT 1 OHM
*L_UNIT 1 HENRY

*NAME_MAP
*1 io_in[0]
*2 io_in[1]
*3 io_in[2]
*4 io_in[3]
*5 io_in[4]
*6 io_in[5]
*7 io_in[6]
*8 io_in[7]
*9 io_out[0]
*10 io_out[1]
*11 io_out[2]
*12 io_out[3]
*13 io_out[4]
*14 net8
*15 net9
*16 net10
*19 _000_
*20 _001_
*21 _002_
*22 _003_
*23 _004_
*24 _005_
*25 _006_
*26 _007_
*27 _008_
*28 _009_
*29 _010_
*30 _011_
*31 _012_
*32 _013_
*33 _014_
*34 _015_
*35 _016_
*36 _017_
*37 _018_
*38 _019_
*39 _020_
*40 _021_
*41 _022_
*42 _023_
*43 _024_
*44 _025_
*45 _026_
*46 _027_
*47 _028_
*48 _029_
*49 _030_
*50 _031_
*51 _032_
*52 _033_
*53 _034_
*54 _035_
*55 _036_
*56 _037_
*57 _038_
*58 _039_
*59 _040_
*60 _041_
*61 _042_
*62 _043_
*63 _044_
*64 _045_
*65 _046_
*66 _047_
*67 _048_
*68 _049_
*69 _050_
*70 _051_
*71 _052_
*72 _053_
*73 _054_
*74 _055_
*75 _056_
*76 _057_
*77 _058_
*78 alu\.a\[0\]
*79 alu\.a\[1\]
*80 alu\.a\[2\]
*81 alu\.a\[3\]
*82 alu\.b\[0\]
*83 alu\.b\[1\]
*84 alu\.b\[2\]
*85 alu\.b\[3\]
*86 alu\.co
*87 alu\.op
*88 alu_fsm\.curstate\[0\]
*89 alu_fsm\.curstate\[1\]
*90 alu_fsm\.curstate\[2\]
*91 alu_fsm\.nextstate\[0\]
*92 alu_fsm\.nextstate\[1\]
*93 alu_fsm\.nextstate\[2\]
*94 clknet_0_io_in[0]
*95 clknet_1_0__leaf_io_in[0]
*96 clknet_1_1__leaf_io_in[0]
*97 net1
*98 net2
*99 net3
*100 net4
*101 net5
*102 net6
*103 net7
*104 FILLER_0_109
*105 FILLER_0_113
*106 FILLER_0_125
*107 FILLER_0_137
*108 FILLER_0_141
*109 FILLER_0_15
*110 FILLER_0_153
*111 FILLER_0_165
*112 FILLER_0_169
*113 FILLER_0_181
*114 FILLER_0_193
*115 FILLER_0_197
*116 FILLER_0_209
*117 FILLER_0_221
*118 FILLER_0_225
*119 FILLER_0_237
*120 FILLER_0_249
*121 FILLER_0_253
*122 FILLER_0_265
*123 FILLER_0_27
*124 FILLER_0_277
*125 FILLER_0_281
*126 FILLER_0_29
*127 FILLER_0_293
*128 FILLER_0_3
*129 FILLER_0_41
*130 FILLER_0_53
*131 FILLER_0_57
*132 FILLER_0_69
*133 FILLER_0_81
*134 FILLER_0_85
*135 FILLER_0_97
*136 FILLER_10_109
*137 FILLER_10_121
*138 FILLER_10_133
*139 FILLER_10_139
*140 FILLER_10_141
*141 FILLER_10_15
*142 FILLER_10_153
*143 FILLER_10_165
*144 FILLER_10_177
*145 FILLER_10_189
*146 FILLER_10_195
*147 FILLER_10_197
*148 FILLER_10_209
*149 FILLER_10_221
*150 FILLER_10_233
*151 FILLER_10_245
*152 FILLER_10_251
*153 FILLER_10_253
*154 FILLER_10_265
*155 FILLER_10_27
*156 FILLER_10_277
*157 FILLER_10_289
*158 FILLER_10_29
*159 FILLER_10_297
*160 FILLER_10_3
*161 FILLER_10_41
*162 FILLER_10_53
*163 FILLER_10_65
*164 FILLER_10_77
*165 FILLER_10_83
*166 FILLER_10_85
*167 FILLER_10_97
*168 FILLER_11_105
*169 FILLER_11_111
*170 FILLER_11_113
*171 FILLER_11_125
*172 FILLER_11_137
*173 FILLER_11_149
*174 FILLER_11_15
*175 FILLER_11_161
*176 FILLER_11_167
*177 FILLER_11_169
*178 FILLER_11_181
*179 FILLER_11_193
*180 FILLER_11_205
*181 FILLER_11_217
*182 FILLER_11_223
*183 FILLER_11_225
*184 FILLER_11_237
*185 FILLER_11_249
*186 FILLER_11_261
*187 FILLER_11_27
*188 FILLER_11_273
*189 FILLER_11_279
*190 FILLER_11_281
*191 FILLER_11_293
*192 FILLER_11_3
*193 FILLER_11_39
*194 FILLER_11_51
*195 FILLER_11_55
*196 FILLER_11_57
*197 FILLER_11_69
*198 FILLER_11_81
*199 FILLER_11_93
*200 FILLER_12_109
*201 FILLER_12_121
*202 FILLER_12_133
*203 FILLER_12_139
*204 FILLER_12_141
*205 FILLER_12_153
*206 FILLER_12_165
*207 FILLER_12_177
*208 FILLER_12_189
*209 FILLER_12_195
*210 FILLER_12_197
*211 FILLER_12_20
*212 FILLER_12_209
*213 FILLER_12_221
*214 FILLER_12_233
*215 FILLER_12_245
*216 FILLER_12_251
*217 FILLER_12_253
*218 FILLER_12_265
*219 FILLER_12_277
*220 FILLER_12_289
*221 FILLER_12_29
*222 FILLER_12_297
*223 FILLER_12_3
*224 FILLER_12_41
*225 FILLER_12_53
*226 FILLER_12_65
*227 FILLER_12_77
*228 FILLER_12_8
*229 FILLER_12_83
*230 FILLER_12_85
*231 FILLER_12_97
*232 FILLER_13_105
*233 FILLER_13_111
*234 FILLER_13_113
*235 FILLER_13_125
*236 FILLER_13_137
*237 FILLER_13_149
*238 FILLER_13_15
*239 FILLER_13_161
*240 FILLER_13_167
*241 FILLER_13_169
*242 FILLER_13_181
*243 FILLER_13_193
*244 FILLER_13_205
*245 FILLER_13_217
*246 FILLER_13_223
*247 FILLER_13_225
*248 FILLER_13_237
*249 FILLER_13_249
*250 FILLER_13_261
*251 FILLER_13_27
*252 FILLER_13_273
*253 FILLER_13_279
*254 FILLER_13_281
*255 FILLER_13_293
*256 FILLER_13_3
*257 FILLER_13_39
*258 FILLER_13_51
*259 FILLER_13_55
*260 FILLER_13_57
*261 FILLER_13_69
*262 FILLER_13_81
*263 FILLER_13_93
*264 FILLER_14_109
*265 FILLER_14_11
*266 FILLER_14_121
*267 FILLER_14_133
*268 FILLER_14_139
*269 FILLER_14_141
*270 FILLER_14_153
*271 FILLER_14_165
*272 FILLER_14_177
*273 FILLER_14_18
*274 FILLER_14_189
*275 FILLER_14_195
*276 FILLER_14_197
*277 FILLER_14_209
*278 FILLER_14_221
*279 FILLER_14_233
*280 FILLER_14_245
*281 FILLER_14_25
*282 FILLER_14_251
*283 FILLER_14_253
*284 FILLER_14_265
*285 FILLER_14_277
*286 FILLER_14_289
*287 FILLER_14_29
*288 FILLER_14_297
*289 FILLER_14_3
*290 FILLER_14_41
*291 FILLER_14_53
*292 FILLER_14_65
*293 FILLER_14_7
*294 FILLER_14_77
*295 FILLER_14_83
*296 FILLER_14_85
*297 FILLER_14_97
*298 FILLER_15_105
*299 FILLER_15_111
*300 FILLER_15_113
*301 FILLER_15_125
*302 FILLER_15_137
*303 FILLER_15_149
*304 FILLER_15_161
*305 FILLER_15_167
*306 FILLER_15_169
*307 FILLER_15_17
*308 FILLER_15_181
*309 FILLER_15_193
*310 FILLER_15_205
*311 FILLER_15_217
*312 FILLER_15_223
*313 FILLER_15_225
*314 FILLER_15_237
*315 FILLER_15_249
*316 FILLER_15_261
*317 FILLER_15_273
*318 FILLER_15_279
*319 FILLER_15_281
*320 FILLER_15_293
*321 FILLER_15_3
*322 FILLER_15_33
*323 FILLER_15_42
*324 FILLER_15_54
*325 FILLER_15_57
*326 FILLER_15_69
*327 FILLER_15_81
*328 FILLER_15_93
*329 FILLER_16_109
*330 FILLER_16_121
*331 FILLER_16_133
*332 FILLER_16_139
*333 FILLER_16_141
*334 FILLER_16_153
*335 FILLER_16_165
*336 FILLER_16_177
*337 FILLER_16_189
*338 FILLER_16_195
*339 FILLER_16_197
*340 FILLER_16_209
*341 FILLER_16_221
*342 FILLER_16_233
*343 FILLER_16_245
*344 FILLER_16_25
*345 FILLER_16_251
*346 FILLER_16_253
*347 FILLER_16_265
*348 FILLER_16_277
*349 FILLER_16_289
*350 FILLER_16_29
*351 FILLER_16_297
*352 FILLER_16_3
*353 FILLER_16_51
*354 FILLER_16_63
*355 FILLER_16_75
*356 FILLER_16_83
*357 FILLER_16_85
*358 FILLER_16_97
*359 FILLER_17_105
*360 FILLER_17_111
*361 FILLER_17_113
*362 FILLER_17_12
*363 FILLER_17_125
*364 FILLER_17_137
*365 FILLER_17_149
*366 FILLER_17_161
*367 FILLER_17_167
*368 FILLER_17_169
*369 FILLER_17_181
*370 FILLER_17_193
*371 FILLER_17_205
*372 FILLER_17_217
*373 FILLER_17_223
*374 FILLER_17_225
*375 FILLER_17_237
*376 FILLER_17_249
*377 FILLER_17_261
*378 FILLER_17_273
*379 FILLER_17_279
*380 FILLER_17_281
*381 FILLER_17_293
*382 FILLER_17_3
*383 FILLER_17_36
*384 FILLER_17_43
*385 FILLER_17_50
*386 FILLER_17_57
*387 FILLER_17_69
*388 FILLER_17_81
*389 FILLER_17_93
*390 FILLER_18_109
*391 FILLER_18_121
*392 FILLER_18_133
*393 FILLER_18_139
*394 FILLER_18_141
*395 FILLER_18_153
*396 FILLER_18_165
*397 FILLER_18_177
*398 FILLER_18_189
*399 FILLER_18_19
*400 FILLER_18_195
*401 FILLER_18_197
*402 FILLER_18_209
*403 FILLER_18_221
*404 FILLER_18_233
*405 FILLER_18_245
*406 FILLER_18_251
*407 FILLER_18_253
*408 FILLER_18_26
*409 FILLER_18_265
*410 FILLER_18_277
*411 FILLER_18_289
*412 FILLER_18_29
*413 FILLER_18_297
*414 FILLER_18_3
*415 FILLER_18_36
*416 FILLER_18_45
*417 FILLER_18_52
*418 FILLER_18_64
*419 FILLER_18_76
*420 FILLER_18_8
*421 FILLER_18_85
*422 FILLER_18_97
*423 FILLER_19_105
*424 FILLER_19_111
*425 FILLER_19_113
*426 FILLER_19_125
*427 FILLER_19_137
*428 FILLER_19_149
*429 FILLER_19_16
*430 FILLER_19_161
*431 FILLER_19_167
*432 FILLER_19_169
*433 FILLER_19_181
*434 FILLER_19_193
*435 FILLER_19_20
*436 FILLER_19_205
*437 FILLER_19_217
*438 FILLER_19_223
*439 FILLER_19_225
*440 FILLER_19_237
*441 FILLER_19_249
*442 FILLER_19_261
*443 FILLER_19_273
*444 FILLER_19_279
*445 FILLER_19_281
*446 FILLER_19_293
*447 FILLER_19_3
*448 FILLER_19_33
*449 FILLER_19_47
*450 FILLER_19_54
*451 FILLER_19_57
*452 FILLER_19_69
*453 FILLER_19_81
*454 FILLER_19_93
*455 FILLER_1_105
*456 FILLER_1_111
*457 FILLER_1_113
*458 FILLER_1_125
*459 FILLER_1_137
*460 FILLER_1_149
*461 FILLER_1_15
*462 FILLER_1_161
*463 FILLER_1_167
*464 FILLER_1_169
*465 FILLER_1_181
*466 FILLER_1_193
*467 FILLER_1_205
*468 FILLER_1_217
*469 FILLER_1_223
*470 FILLER_1_225
*471 FILLER_1_237
*472 FILLER_1_249
*473 FILLER_1_261
*474 FILLER_1_27
*475 FILLER_1_273
*476 FILLER_1_279
*477 FILLER_1_281
*478 FILLER_1_293
*479 FILLER_1_3
*480 FILLER_1_39
*481 FILLER_1_51
*482 FILLER_1_55
*483 FILLER_1_57
*484 FILLER_1_69
*485 FILLER_1_81
*486 FILLER_1_93
*487 FILLER_20_109
*488 FILLER_20_121
*489 FILLER_20_133
*490 FILLER_20_139
*491 FILLER_20_141
*492 FILLER_20_153
*493 FILLER_20_165
*494 FILLER_20_177
*495 FILLER_20_189
*496 FILLER_20_195
*497 FILLER_20_197
*498 FILLER_20_209
*499 FILLER_20_221
*500 FILLER_20_233
*501 FILLER_20_245
*502 FILLER_20_25
*503 FILLER_20_251
*504 FILLER_20_253
*505 FILLER_20_265
*506 FILLER_20_277
*507 FILLER_20_289
*508 FILLER_20_29
*509 FILLER_20_297
*510 FILLER_20_3
*511 FILLER_20_53
*512 FILLER_20_65
*513 FILLER_20_77
*514 FILLER_20_83
*515 FILLER_20_85
*516 FILLER_20_97
*517 FILLER_21_105
*518 FILLER_21_111
*519 FILLER_21_113
*520 FILLER_21_125
*521 FILLER_21_137
*522 FILLER_21_149
*523 FILLER_21_161
*524 FILLER_21_167
*525 FILLER_21_169
*526 FILLER_21_181
*527 FILLER_21_193
*528 FILLER_21_205
*529 FILLER_21_217
*530 FILLER_21_223
*531 FILLER_21_225
*532 FILLER_21_237
*533 FILLER_21_249
*534 FILLER_21_261
*535 FILLER_21_273
*536 FILLER_21_279
*537 FILLER_21_281
*538 FILLER_21_293
*539 FILLER_21_3
*540 FILLER_21_36
*541 FILLER_21_46
*542 FILLER_21_53
*543 FILLER_21_57
*544 FILLER_21_69
*545 FILLER_21_8
*546 FILLER_21_81
*547 FILLER_21_93
*548 FILLER_22_109
*549 FILLER_22_121
*550 FILLER_22_133
*551 FILLER_22_139
*552 FILLER_22_141
*553 FILLER_22_153
*554 FILLER_22_165
*555 FILLER_22_177
*556 FILLER_22_189
*557 FILLER_22_195
*558 FILLER_22_197
*559 FILLER_22_209
*560 FILLER_22_221
*561 FILLER_22_233
*562 FILLER_22_245
*563 FILLER_22_251
*564 FILLER_22_253
*565 FILLER_22_26
*566 FILLER_22_265
*567 FILLER_22_277
*568 FILLER_22_289
*569 FILLER_22_29
*570 FILLER_22_297
*571 FILLER_22_3
*572 FILLER_22_36
*573 FILLER_22_46
*574 FILLER_22_55
*575 FILLER_22_67
*576 FILLER_22_79
*577 FILLER_22_83
*578 FILLER_22_85
*579 FILLER_22_97
*580 FILLER_23_105
*581 FILLER_23_111
*582 FILLER_23_113
*583 FILLER_23_125
*584 FILLER_23_137
*585 FILLER_23_149
*586 FILLER_23_161
*587 FILLER_23_167
*588 FILLER_23_169
*589 FILLER_23_181
*590 FILLER_23_193
*591 FILLER_23_205
*592 FILLER_23_217
*593 FILLER_23_223
*594 FILLER_23_225
*595 FILLER_23_23
*596 FILLER_23_237
*597 FILLER_23_249
*598 FILLER_23_261
*599 FILLER_23_273
*600 FILLER_23_279
*601 FILLER_23_281
*602 FILLER_23_293
*603 FILLER_23_3
*604 FILLER_23_47
*605 FILLER_23_55
*606 FILLER_23_57
*607 FILLER_23_69
*608 FILLER_23_8
*609 FILLER_23_81
*610 FILLER_23_93
*611 FILLER_24_109
*612 FILLER_24_121
*613 FILLER_24_133
*614 FILLER_24_139
*615 FILLER_24_141
*616 FILLER_24_153
*617 FILLER_24_165
*618 FILLER_24_177
*619 FILLER_24_189
*620 FILLER_24_195
*621 FILLER_24_197
*622 FILLER_24_209
*623 FILLER_24_221
*624 FILLER_24_233
*625 FILLER_24_245
*626 FILLER_24_251
*627 FILLER_24_253
*628 FILLER_24_26
*629 FILLER_24_265
*630 FILLER_24_277
*631 FILLER_24_289
*632 FILLER_24_29
*633 FILLER_24_297
*634 FILLER_24_3
*635 FILLER_24_34
*636 FILLER_24_41
*637 FILLER_24_53
*638 FILLER_24_65
*639 FILLER_24_77
*640 FILLER_24_83
*641 FILLER_24_85
*642 FILLER_24_9
*643 FILLER_24_97
*644 FILLER_25_105
*645 FILLER_25_111
*646 FILLER_25_113
*647 FILLER_25_125
*648 FILLER_25_137
*649 FILLER_25_149
*650 FILLER_25_161
*651 FILLER_25_167
*652 FILLER_25_169
*653 FILLER_25_181
*654 FILLER_25_19
*655 FILLER_25_193
*656 FILLER_25_205
*657 FILLER_25_217
*658 FILLER_25_223
*659 FILLER_25_225
*660 FILLER_25_237
*661 FILLER_25_249
*662 FILLER_25_25
*663 FILLER_25_261
*664 FILLER_25_273
*665 FILLER_25_279
*666 FILLER_25_281
*667 FILLER_25_293
*668 FILLER_25_3
*669 FILLER_25_47
*670 FILLER_25_55
*671 FILLER_25_57
*672 FILLER_25_69
*673 FILLER_25_81
*674 FILLER_25_9
*675 FILLER_25_93
*676 FILLER_26_109
*677 FILLER_26_121
*678 FILLER_26_133
*679 FILLER_26_139
*680 FILLER_26_141
*681 FILLER_26_153
*682 FILLER_26_165
*683 FILLER_26_177
*684 FILLER_26_189
*685 FILLER_26_195
*686 FILLER_26_197
*687 FILLER_26_209
*688 FILLER_26_221
*689 FILLER_26_233
*690 FILLER_26_245
*691 FILLER_26_25
*692 FILLER_26_251
*693 FILLER_26_253
*694 FILLER_26_265
*695 FILLER_26_277
*696 FILLER_26_289
*697 FILLER_26_29
*698 FILLER_26_297
*699 FILLER_26_3
*700 FILLER_26_34
*701 FILLER_26_46
*702 FILLER_26_58
*703 FILLER_26_70
*704 FILLER_26_82
*705 FILLER_26_85
*706 FILLER_26_97
*707 FILLER_27_105
*708 FILLER_27_111
*709 FILLER_27_113
*710 FILLER_27_125
*711 FILLER_27_137
*712 FILLER_27_149
*713 FILLER_27_161
*714 FILLER_27_167
*715 FILLER_27_169
*716 FILLER_27_181
*717 FILLER_27_193
*718 FILLER_27_205
*719 FILLER_27_217
*720 FILLER_27_223
*721 FILLER_27_225
*722 FILLER_27_237
*723 FILLER_27_24
*724 FILLER_27_249
*725 FILLER_27_261
*726 FILLER_27_273
*727 FILLER_27_279
*728 FILLER_27_281
*729 FILLER_27_293
*730 FILLER_27_3
*731 FILLER_27_48
*732 FILLER_27_57
*733 FILLER_27_69
*734 FILLER_27_81
*735 FILLER_27_9
*736 FILLER_27_93
*737 FILLER_28_109
*738 FILLER_28_121
*739 FILLER_28_133
*740 FILLER_28_139
*741 FILLER_28_141
*742 FILLER_28_153
*743 FILLER_28_165
*744 FILLER_28_177
*745 FILLER_28_189
*746 FILLER_28_195
*747 FILLER_28_197
*748 FILLER_28_209
*749 FILLER_28_221
*750 FILLER_28_23
*751 FILLER_28_233
*752 FILLER_28_245
*753 FILLER_28_251
*754 FILLER_28_253
*755 FILLER_28_265
*756 FILLER_28_27
*757 FILLER_28_277
*758 FILLER_28_289
*759 FILLER_28_29
*760 FILLER_28_297
*761 FILLER_28_3
*762 FILLER_28_36
*763 FILLER_28_46
*764 FILLER_28_58
*765 FILLER_28_70
*766 FILLER_28_8
*767 FILLER_28_82
*768 FILLER_28_85
*769 FILLER_28_97
*770 FILLER_29_105
*771 FILLER_29_111
*772 FILLER_29_113
*773 FILLER_29_125
*774 FILLER_29_137
*775 FILLER_29_149
*776 FILLER_29_161
*777 FILLER_29_167
*778 FILLER_29_169
*779 FILLER_29_181
*780 FILLER_29_193
*781 FILLER_29_205
*782 FILLER_29_217
*783 FILLER_29_223
*784 FILLER_29_225
*785 FILLER_29_237
*786 FILLER_29_249
*787 FILLER_29_261
*788 FILLER_29_27
*789 FILLER_29_273
*790 FILLER_29_279
*791 FILLER_29_281
*792 FILLER_29_293
*793 FILLER_29_3
*794 FILLER_29_31
*795 FILLER_29_35
*796 FILLER_29_46
*797 FILLER_29_54
*798 FILLER_29_57
*799 FILLER_29_69
*800 FILLER_29_81
*801 FILLER_29_93
*802 FILLER_2_109
*803 FILLER_2_121
*804 FILLER_2_133
*805 FILLER_2_139
*806 FILLER_2_141
*807 FILLER_2_15
*808 FILLER_2_153
*809 FILLER_2_165
*810 FILLER_2_177
*811 FILLER_2_189
*812 FILLER_2_195
*813 FILLER_2_197
*814 FILLER_2_209
*815 FILLER_2_221
*816 FILLER_2_233
*817 FILLER_2_245
*818 FILLER_2_251
*819 FILLER_2_253
*820 FILLER_2_265
*821 FILLER_2_27
*822 FILLER_2_277
*823 FILLER_2_289
*824 FILLER_2_29
*825 FILLER_2_297
*826 FILLER_2_3
*827 FILLER_2_41
*828 FILLER_2_53
*829 FILLER_2_65
*830 FILLER_2_77
*831 FILLER_2_83
*832 FILLER_2_85
*833 FILLER_2_97
*834 FILLER_30_109
*835 FILLER_30_121
*836 FILLER_30_133
*837 FILLER_30_139
*838 FILLER_30_141
*839 FILLER_30_153
*840 FILLER_30_165
*841 FILLER_30_17
*842 FILLER_30_177
*843 FILLER_30_189
*844 FILLER_30_195
*845 FILLER_30_197
*846 FILLER_30_209
*847 FILLER_30_221
*848 FILLER_30_233
*849 FILLER_30_245
*850 FILLER_30_251
*851 FILLER_30_253
*852 FILLER_30_26
*853 FILLER_30_265
*854 FILLER_30_277
*855 FILLER_30_289
*856 FILLER_30_29
*857 FILLER_30_297
*858 FILLER_30_3
*859 FILLER_30_44
*860 FILLER_30_56
*861 FILLER_30_68
*862 FILLER_30_7
*863 FILLER_30_80
*864 FILLER_30_85
*865 FILLER_30_97
*866 FILLER_31_105
*867 FILLER_31_111
*868 FILLER_31_113
*869 FILLER_31_12
*870 FILLER_31_125
*871 FILLER_31_137
*872 FILLER_31_149
*873 FILLER_31_161
*874 FILLER_31_167
*875 FILLER_31_169
*876 FILLER_31_181
*877 FILLER_31_193
*878 FILLER_31_205
*879 FILLER_31_217
*880 FILLER_31_22
*881 FILLER_31_223
*882 FILLER_31_225
*883 FILLER_31_237
*884 FILLER_31_249
*885 FILLER_31_261
*886 FILLER_31_273
*887 FILLER_31_279
*888 FILLER_31_281
*889 FILLER_31_293
*890 FILLER_31_3
*891 FILLER_31_35
*892 FILLER_31_45
*893 FILLER_31_53
*894 FILLER_31_57
*895 FILLER_31_69
*896 FILLER_31_81
*897 FILLER_31_93
*898 FILLER_32_109
*899 FILLER_32_121
*900 FILLER_32_133
*901 FILLER_32_139
*902 FILLER_32_141
*903 FILLER_32_153
*904 FILLER_32_165
*905 FILLER_32_177
*906 FILLER_32_18
*907 FILLER_32_189
*908 FILLER_32_195
*909 FILLER_32_197
*910 FILLER_32_209
*911 FILLER_32_22
*912 FILLER_32_221
*913 FILLER_32_233
*914 FILLER_32_245
*915 FILLER_32_251
*916 FILLER_32_253
*917 FILLER_32_26
*918 FILLER_32_265
*919 FILLER_32_277
*920 FILLER_32_289
*921 FILLER_32_29
*922 FILLER_32_297
*923 FILLER_32_3
*924 FILLER_32_51
*925 FILLER_32_63
*926 FILLER_32_75
*927 FILLER_32_83
*928 FILLER_32_85
*929 FILLER_32_97
*930 FILLER_33_105
*931 FILLER_33_111
*932 FILLER_33_113
*933 FILLER_33_125
*934 FILLER_33_137
*935 FILLER_33_149
*936 FILLER_33_161
*937 FILLER_33_167
*938 FILLER_33_169
*939 FILLER_33_181
*940 FILLER_33_193
*941 FILLER_33_205
*942 FILLER_33_217
*943 FILLER_33_223
*944 FILLER_33_225
*945 FILLER_33_237
*946 FILLER_33_249
*947 FILLER_33_25
*948 FILLER_33_261
*949 FILLER_33_273
*950 FILLER_33_279
*951 FILLER_33_281
*952 FILLER_33_293
*953 FILLER_33_3
*954 FILLER_33_32
*955 FILLER_33_44
*956 FILLER_33_57
*957 FILLER_33_69
*958 FILLER_33_81
*959 FILLER_33_93
*960 FILLER_34_109
*961 FILLER_34_121
*962 FILLER_34_133
*963 FILLER_34_139
*964 FILLER_34_141
*965 FILLER_34_153
*966 FILLER_34_165
*967 FILLER_34_177
*968 FILLER_34_189
*969 FILLER_34_195
*970 FILLER_34_197
*971 FILLER_34_20
*972 FILLER_34_209
*973 FILLER_34_221
*974 FILLER_34_233
*975 FILLER_34_245
*976 FILLER_34_251
*977 FILLER_34_253
*978 FILLER_34_265
*979 FILLER_34_277
*980 FILLER_34_289
*981 FILLER_34_29
*982 FILLER_34_297
*983 FILLER_34_3
*984 FILLER_34_40
*985 FILLER_34_52
*986 FILLER_34_64
*987 FILLER_34_76
*988 FILLER_34_85
*989 FILLER_34_97
*990 FILLER_35_105
*991 FILLER_35_111
*992 FILLER_35_113
*993 FILLER_35_125
*994 FILLER_35_137
*995 FILLER_35_149
*996 FILLER_35_161
*997 FILLER_35_167
*998 FILLER_35_169
*999 FILLER_35_181
*1000 FILLER_35_193
*1001 FILLER_35_205
*1002 FILLER_35_217
*1003 FILLER_35_223
*1004 FILLER_35_225
*1005 FILLER_35_237
*1006 FILLER_35_249
*1007 FILLER_35_25
*1008 FILLER_35_261
*1009 FILLER_35_273
*1010 FILLER_35_279
*1011 FILLER_35_281
*1012 FILLER_35_293
*1013 FILLER_35_3
*1014 FILLER_35_49
*1015 FILLER_35_55
*1016 FILLER_35_57
*1017 FILLER_35_69
*1018 FILLER_35_81
*1019 FILLER_35_93
*1020 FILLER_36_109
*1021 FILLER_36_121
*1022 FILLER_36_133
*1023 FILLER_36_139
*1024 FILLER_36_141
*1025 FILLER_36_153
*1026 FILLER_36_16
*1027 FILLER_36_165
*1028 FILLER_36_177
*1029 FILLER_36_189
*1030 FILLER_36_195
*1031 FILLER_36_197
*1032 FILLER_36_209
*1033 FILLER_36_221
*1034 FILLER_36_233
*1035 FILLER_36_245
*1036 FILLER_36_251
*1037 FILLER_36_253
*1038 FILLER_36_26
*1039 FILLER_36_265
*1040 FILLER_36_277
*1041 FILLER_36_289
*1042 FILLER_36_29
*1043 FILLER_36_297
*1044 FILLER_36_3
*1045 FILLER_36_38
*1046 FILLER_36_50
*1047 FILLER_36_62
*1048 FILLER_36_74
*1049 FILLER_36_82
*1050 FILLER_36_85
*1051 FILLER_36_9
*1052 FILLER_36_97
*1053 FILLER_37_105
*1054 FILLER_37_111
*1055 FILLER_37_113
*1056 FILLER_37_125
*1057 FILLER_37_137
*1058 FILLER_37_149
*1059 FILLER_37_161
*1060 FILLER_37_167
*1061 FILLER_37_169
*1062 FILLER_37_18
*1063 FILLER_37_181
*1064 FILLER_37_193
*1065 FILLER_37_205
*1066 FILLER_37_217
*1067 FILLER_37_223
*1068 FILLER_37_225
*1069 FILLER_37_237
*1070 FILLER_37_249
*1071 FILLER_37_261
*1072 FILLER_37_273
*1073 FILLER_37_279
*1074 FILLER_37_28
*1075 FILLER_37_281
*1076 FILLER_37_293
*1077 FILLER_37_3
*1078 FILLER_37_41
*1079 FILLER_37_53
*1080 FILLER_37_57
*1081 FILLER_37_69
*1082 FILLER_37_81
*1083 FILLER_37_93
*1084 FILLER_38_109
*1085 FILLER_38_11
*1086 FILLER_38_121
*1087 FILLER_38_133
*1088 FILLER_38_139
*1089 FILLER_38_141
*1090 FILLER_38_153
*1091 FILLER_38_165
*1092 FILLER_38_177
*1093 FILLER_38_189
*1094 FILLER_38_195
*1095 FILLER_38_197
*1096 FILLER_38_20
*1097 FILLER_38_209
*1098 FILLER_38_221
*1099 FILLER_38_233
*1100 FILLER_38_245
*1101 FILLER_38_251
*1102 FILLER_38_253
*1103 FILLER_38_265
*1104 FILLER_38_277
*1105 FILLER_38_289
*1106 FILLER_38_29
*1107 FILLER_38_297
*1108 FILLER_38_3
*1109 FILLER_38_46
*1110 FILLER_38_53
*1111 FILLER_38_65
*1112 FILLER_38_77
*1113 FILLER_38_83
*1114 FILLER_38_85
*1115 FILLER_38_97
*1116 FILLER_39_105
*1117 FILLER_39_111
*1118 FILLER_39_113
*1119 FILLER_39_12
*1120 FILLER_39_125
*1121 FILLER_39_137
*1122 FILLER_39_149
*1123 FILLER_39_161
*1124 FILLER_39_167
*1125 FILLER_39_169
*1126 FILLER_39_181
*1127 FILLER_39_193
*1128 FILLER_39_205
*1129 FILLER_39_217
*1130 FILLER_39_22
*1131 FILLER_39_223
*1132 FILLER_39_225
*1133 FILLER_39_237
*1134 FILLER_39_249
*1135 FILLER_39_261
*1136 FILLER_39_273
*1137 FILLER_39_279
*1138 FILLER_39_281
*1139 FILLER_39_293
*1140 FILLER_39_3
*1141 FILLER_39_50
*1142 FILLER_39_57
*1143 FILLER_39_69
*1144 FILLER_39_81
*1145 FILLER_39_93
*1146 FILLER_3_105
*1147 FILLER_3_111
*1148 FILLER_3_113
*1149 FILLER_3_125
*1150 FILLER_3_137
*1151 FILLER_3_149
*1152 FILLER_3_15
*1153 FILLER_3_161
*1154 FILLER_3_167
*1155 FILLER_3_169
*1156 FILLER_3_181
*1157 FILLER_3_193
*1158 FILLER_3_205
*1159 FILLER_3_217
*1160 FILLER_3_223
*1161 FILLER_3_225
*1162 FILLER_3_237
*1163 FILLER_3_249
*1164 FILLER_3_261
*1165 FILLER_3_27
*1166 FILLER_3_273
*1167 FILLER_3_279
*1168 FILLER_3_281
*1169 FILLER_3_293
*1170 FILLER_3_3
*1171 FILLER_3_39
*1172 FILLER_3_51
*1173 FILLER_3_55
*1174 FILLER_3_57
*1175 FILLER_3_69
*1176 FILLER_3_81
*1177 FILLER_3_93
*1178 FILLER_40_109
*1179 FILLER_40_11
*1180 FILLER_40_121
*1181 FILLER_40_133
*1182 FILLER_40_139
*1183 FILLER_40_141
*1184 FILLER_40_153
*1185 FILLER_40_165
*1186 FILLER_40_177
*1187 FILLER_40_189
*1188 FILLER_40_195
*1189 FILLER_40_197
*1190 FILLER_40_209
*1191 FILLER_40_21
*1192 FILLER_40_221
*1193 FILLER_40_233
*1194 FILLER_40_245
*1195 FILLER_40_251
*1196 FILLER_40_253
*1197 FILLER_40_265
*1198 FILLER_40_27
*1199 FILLER_40_277
*1200 FILLER_40_289
*1201 FILLER_40_29
*1202 FILLER_40_297
*1203 FILLER_40_3
*1204 FILLER_40_38
*1205 FILLER_40_50
*1206 FILLER_40_62
*1207 FILLER_40_74
*1208 FILLER_40_82
*1209 FILLER_40_85
*1210 FILLER_40_97
*1211 FILLER_41_105
*1212 FILLER_41_11
*1213 FILLER_41_111
*1214 FILLER_41_113
*1215 FILLER_41_125
*1216 FILLER_41_137
*1217 FILLER_41_149
*1218 FILLER_41_161
*1219 FILLER_41_167
*1220 FILLER_41_169
*1221 FILLER_41_181
*1222 FILLER_41_193
*1223 FILLER_41_205
*1224 FILLER_41_217
*1225 FILLER_41_223
*1226 FILLER_41_225
*1227 FILLER_41_237
*1228 FILLER_41_249
*1229 FILLER_41_261
*1230 FILLER_41_273
*1231 FILLER_41_279
*1232 FILLER_41_281
*1233 FILLER_41_293
*1234 FILLER_41_3
*1235 FILLER_41_35
*1236 FILLER_41_47
*1237 FILLER_41_55
*1238 FILLER_41_57
*1239 FILLER_41_69
*1240 FILLER_41_81
*1241 FILLER_41_93
*1242 FILLER_42_109
*1243 FILLER_42_121
*1244 FILLER_42_133
*1245 FILLER_42_139
*1246 FILLER_42_141
*1247 FILLER_42_15
*1248 FILLER_42_153
*1249 FILLER_42_165
*1250 FILLER_42_177
*1251 FILLER_42_189
*1252 FILLER_42_195
*1253 FILLER_42_197
*1254 FILLER_42_209
*1255 FILLER_42_221
*1256 FILLER_42_233
*1257 FILLER_42_245
*1258 FILLER_42_251
*1259 FILLER_42_253
*1260 FILLER_42_265
*1261 FILLER_42_27
*1262 FILLER_42_277
*1263 FILLER_42_289
*1264 FILLER_42_29
*1265 FILLER_42_297
*1266 FILLER_42_3
*1267 FILLER_42_41
*1268 FILLER_42_53
*1269 FILLER_42_65
*1270 FILLER_42_77
*1271 FILLER_42_83
*1272 FILLER_42_85
*1273 FILLER_42_97
*1274 FILLER_43_105
*1275 FILLER_43_111
*1276 FILLER_43_113
*1277 FILLER_43_125
*1278 FILLER_43_137
*1279 FILLER_43_149
*1280 FILLER_43_15
*1281 FILLER_43_161
*1282 FILLER_43_167
*1283 FILLER_43_169
*1284 FILLER_43_181
*1285 FILLER_43_193
*1286 FILLER_43_205
*1287 FILLER_43_217
*1288 FILLER_43_223
*1289 FILLER_43_225
*1290 FILLER_43_237
*1291 FILLER_43_249
*1292 FILLER_43_261
*1293 FILLER_43_27
*1294 FILLER_43_273
*1295 FILLER_43_279
*1296 FILLER_43_281
*1297 FILLER_43_293
*1298 FILLER_43_3
*1299 FILLER_43_39
*1300 FILLER_43_51
*1301 FILLER_43_55
*1302 FILLER_43_57
*1303 FILLER_43_69
*1304 FILLER_43_81
*1305 FILLER_43_93
*1306 FILLER_44_109
*1307 FILLER_44_121
*1308 FILLER_44_133
*1309 FILLER_44_139
*1310 FILLER_44_141
*1311 FILLER_44_153
*1312 FILLER_44_165
*1313 FILLER_44_177
*1314 FILLER_44_189
*1315 FILLER_44_195
*1316 FILLER_44_197
*1317 FILLER_44_209
*1318 FILLER_44_21
*1319 FILLER_44_221
*1320 FILLER_44_233
*1321 FILLER_44_245
*1322 FILLER_44_251
*1323 FILLER_44_253
*1324 FILLER_44_265
*1325 FILLER_44_27
*1326 FILLER_44_277
*1327 FILLER_44_289
*1328 FILLER_44_29
*1329 FILLER_44_297
*1330 FILLER_44_3
*1331 FILLER_44_41
*1332 FILLER_44_53
*1333 FILLER_44_65
*1334 FILLER_44_77
*1335 FILLER_44_83
*1336 FILLER_44_85
*1337 FILLER_44_9
*1338 FILLER_44_97
*1339 FILLER_45_105
*1340 FILLER_45_111
*1341 FILLER_45_113
*1342 FILLER_45_125
*1343 FILLER_45_137
*1344 FILLER_45_149
*1345 FILLER_45_15
*1346 FILLER_45_161
*1347 FILLER_45_167
*1348 FILLER_45_169
*1349 FILLER_45_181
*1350 FILLER_45_193
*1351 FILLER_45_205
*1352 FILLER_45_217
*1353 FILLER_45_223
*1354 FILLER_45_225
*1355 FILLER_45_237
*1356 FILLER_45_249
*1357 FILLER_45_261
*1358 FILLER_45_27
*1359 FILLER_45_273
*1360 FILLER_45_279
*1361 FILLER_45_281
*1362 FILLER_45_293
*1363 FILLER_45_3
*1364 FILLER_45_39
*1365 FILLER_45_51
*1366 FILLER_45_55
*1367 FILLER_45_57
*1368 FILLER_45_69
*1369 FILLER_45_81
*1370 FILLER_45_93
*1371 FILLER_46_109
*1372 FILLER_46_121
*1373 FILLER_46_133
*1374 FILLER_46_139
*1375 FILLER_46_141
*1376 FILLER_46_15
*1377 FILLER_46_153
*1378 FILLER_46_165
*1379 FILLER_46_177
*1380 FILLER_46_189
*1381 FILLER_46_195
*1382 FILLER_46_197
*1383 FILLER_46_209
*1384 FILLER_46_221
*1385 FILLER_46_233
*1386 FILLER_46_245
*1387 FILLER_46_251
*1388 FILLER_46_253
*1389 FILLER_46_265
*1390 FILLER_46_27
*1391 FILLER_46_277
*1392 FILLER_46_289
*1393 FILLER_46_29
*1394 FILLER_46_297
*1395 FILLER_46_3
*1396 FILLER_46_41
*1397 FILLER_46_53
*1398 FILLER_46_65
*1399 FILLER_46_77
*1400 FILLER_46_83
*1401 FILLER_46_85
*1402 FILLER_46_97
*1403 FILLER_47_105
*1404 FILLER_47_111
*1405 FILLER_47_113
*1406 FILLER_47_125
*1407 FILLER_47_137
*1408 FILLER_47_149
*1409 FILLER_47_15
*1410 FILLER_47_161
*1411 FILLER_47_167
*1412 FILLER_47_169
*1413 FILLER_47_181
*1414 FILLER_47_193
*1415 FILLER_47_205
*1416 FILLER_47_217
*1417 FILLER_47_223
*1418 FILLER_47_225
*1419 FILLER_47_237
*1420 FILLER_47_249
*1421 FILLER_47_261
*1422 FILLER_47_27
*1423 FILLER_47_273
*1424 FILLER_47_279
*1425 FILLER_47_281
*1426 FILLER_47_293
*1427 FILLER_47_3
*1428 FILLER_47_39
*1429 FILLER_47_51
*1430 FILLER_47_55
*1431 FILLER_47_57
*1432 FILLER_47_69
*1433 FILLER_47_81
*1434 FILLER_47_93
*1435 FILLER_48_109
*1436 FILLER_48_121
*1437 FILLER_48_133
*1438 FILLER_48_139
*1439 FILLER_48_141
*1440 FILLER_48_15
*1441 FILLER_48_153
*1442 FILLER_48_165
*1443 FILLER_48_177
*1444 FILLER_48_189
*1445 FILLER_48_195
*1446 FILLER_48_197
*1447 FILLER_48_209
*1448 FILLER_48_221
*1449 FILLER_48_233
*1450 FILLER_48_245
*1451 FILLER_48_251
*1452 FILLER_48_253
*1453 FILLER_48_265
*1454 FILLER_48_27
*1455 FILLER_48_277
*1456 FILLER_48_289
*1457 FILLER_48_29
*1458 FILLER_48_297
*1459 FILLER_48_3
*1460 FILLER_48_41
*1461 FILLER_48_53
*1462 FILLER_48_65
*1463 FILLER_48_77
*1464 FILLER_48_83
*1465 FILLER_48_85
*1466 FILLER_48_97
*1467 FILLER_49_105
*1468 FILLER_49_111
*1469 FILLER_49_113
*1470 FILLER_49_125
*1471 FILLER_49_137
*1472 FILLER_49_149
*1473 FILLER_49_15
*1474 FILLER_49_161
*1475 FILLER_49_167
*1476 FILLER_49_169
*1477 FILLER_49_181
*1478 FILLER_49_193
*1479 FILLER_49_205
*1480 FILLER_49_217
*1481 FILLER_49_223
*1482 FILLER_49_225
*1483 FILLER_49_237
*1484 FILLER_49_249
*1485 FILLER_49_261
*1486 FILLER_49_27
*1487 FILLER_49_273
*1488 FILLER_49_279
*1489 FILLER_49_281
*1490 FILLER_49_293
*1491 FILLER_49_3
*1492 FILLER_49_39
*1493 FILLER_49_51
*1494 FILLER_49_55
*1495 FILLER_49_57
*1496 FILLER_49_69
*1497 FILLER_49_81
*1498 FILLER_49_93
*1499 FILLER_4_109
*1500 FILLER_4_121
*1501 FILLER_4_133
*1502 FILLER_4_139
*1503 FILLER_4_141
*1504 FILLER_4_15
*1505 FILLER_4_153
*1506 FILLER_4_165
*1507 FILLER_4_177
*1508 FILLER_4_189
*1509 FILLER_4_195
*1510 FILLER_4_197
*1511 FILLER_4_209
*1512 FILLER_4_221
*1513 FILLER_4_233
*1514 FILLER_4_245
*1515 FILLER_4_251
*1516 FILLER_4_253
*1517 FILLER_4_265
*1518 FILLER_4_27
*1519 FILLER_4_277
*1520 FILLER_4_289
*1521 FILLER_4_29
*1522 FILLER_4_297
*1523 FILLER_4_3
*1524 FILLER_4_41
*1525 FILLER_4_53
*1526 FILLER_4_65
*1527 FILLER_4_77
*1528 FILLER_4_83
*1529 FILLER_4_85
*1530 FILLER_4_97
*1531 FILLER_50_109
*1532 FILLER_50_121
*1533 FILLER_50_133
*1534 FILLER_50_139
*1535 FILLER_50_141
*1536 FILLER_50_153
*1537 FILLER_50_165
*1538 FILLER_50_177
*1539 FILLER_50_189
*1540 FILLER_50_195
*1541 FILLER_50_197
*1542 FILLER_50_20
*1543 FILLER_50_209
*1544 FILLER_50_221
*1545 FILLER_50_233
*1546 FILLER_50_245
*1547 FILLER_50_251
*1548 FILLER_50_253
*1549 FILLER_50_265
*1550 FILLER_50_277
*1551 FILLER_50_289
*1552 FILLER_50_29
*1553 FILLER_50_297
*1554 FILLER_50_3
*1555 FILLER_50_41
*1556 FILLER_50_53
*1557 FILLER_50_65
*1558 FILLER_50_77
*1559 FILLER_50_8
*1560 FILLER_50_83
*1561 FILLER_50_85
*1562 FILLER_50_97
*1563 FILLER_51_105
*1564 FILLER_51_111
*1565 FILLER_51_113
*1566 FILLER_51_125
*1567 FILLER_51_137
*1568 FILLER_51_149
*1569 FILLER_51_15
*1570 FILLER_51_161
*1571 FILLER_51_167
*1572 FILLER_51_169
*1573 FILLER_51_181
*1574 FILLER_51_193
*1575 FILLER_51_205
*1576 FILLER_51_217
*1577 FILLER_51_223
*1578 FILLER_51_225
*1579 FILLER_51_237
*1580 FILLER_51_249
*1581 FILLER_51_261
*1582 FILLER_51_27
*1583 FILLER_51_273
*1584 FILLER_51_279
*1585 FILLER_51_281
*1586 FILLER_51_293
*1587 FILLER_51_3
*1588 FILLER_51_39
*1589 FILLER_51_51
*1590 FILLER_51_55
*1591 FILLER_51_57
*1592 FILLER_51_69
*1593 FILLER_51_81
*1594 FILLER_51_93
*1595 FILLER_52_109
*1596 FILLER_52_121
*1597 FILLER_52_133
*1598 FILLER_52_139
*1599 FILLER_52_141
*1600 FILLER_52_15
*1601 FILLER_52_153
*1602 FILLER_52_165
*1603 FILLER_52_177
*1604 FILLER_52_189