*SPEF "ieee 1481-1999"
*DESIGN "rotary_encoder"
*DATE "11:11:11 Fri 11 11, 1111"
*VENDOR "OpenRCX"
*PROGRAM "Parallel Extraction"
*VERSION "1.0"
*DESIGN_FLOW "NAME_SCOPE LOCAL" "PIN_CAP NONE"
*DIVIDER /
*DELIMITER :
*BUS_DELIMITER []
*T_UNIT 1 NS
*C_UNIT 1 PF
*R_UNIT 1 OHM
*L_UNIT 1 HENRY

*NAME_MAP
*1 io_in[0]
*2 io_in[1]
*3 io_in[2]
*4 io_in[3]
*5 io_in[4]
*6 io_in[5]
*7 io_in[6]
*8 io_in[7]
*9 io_out[0]
*10 io_out[1]
*11 io_out[2]
*12 io_out[3]
*13 io_out[4]
*14 io_out[5]
*15 io_out[6]
*16 net4
*19 _000_
*20 _001_
*21 _002_
*22 _003_
*23 _004_
*24 _005_
*25 _006_
*26 _007_
*27 _008_
*28 _009_
*29 _010_
*30 _011_
*31 _012_
*32 _013_
*33 _014_
*34 _015_
*35 _016_
*36 _017_
*37 _018_
*38 _019_
*39 _020_
*40 _021_
*41 _022_
*42 _023_
*43 _024_
*44 _025_
*45 _026_
*46 _027_
*47 _028_
*48 _029_
*49 _030_
*50 _031_
*51 _032_
*52 _033_
*53 _034_
*54 _035_
*55 _036_
*56 _037_
*57 _038_
*58 _039_
*59 _040_
*60 _041_
*61 _042_
*62 _043_
*63 _044_
*64 _045_
*65 clknet_0_io_in[0]
*66 clknet_1_0__leaf_io_in[0]
*67 clknet_1_1__leaf_io_in[0]
*68 delay_counter\[0\]
*69 net1
*70 net2
*71 net3
*72 old_value
*73 seg7\.counter\[0\]
*74 seg7\.counter\[1\]
*75 seg7\.counter\[2\]
*76 seg7\.counter\[3\]
*77 FILLER_0_109
*78 FILLER_0_113
*79 FILLER_0_125
*80 FILLER_0_137
*81 FILLER_0_141
*82 FILLER_0_153
*83 FILLER_0_165
*84 FILLER_0_169
*85 FILLER_0_181
*86 FILLER_0_193
*87 FILLER_0_197
*88 FILLER_0_209
*89 FILLER_0_221
*90 FILLER_0_225
*91 FILLER_0_237
*92 FILLER_0_249
*93 FILLER_0_253
*94 FILLER_0_26
*95 FILLER_0_265
*96 FILLER_0_277
*97 FILLER_0_281
*98 FILLER_0_29
*99 FILLER_0_293
*100 FILLER_0_3
*101 FILLER_0_41
*102 FILLER_0_53
*103 FILLER_0_57
*104 FILLER_0_69
*105 FILLER_0_81
*106 FILLER_0_85
*107 FILLER_0_97
*108 FILLER_10_109
*109 FILLER_10_121
*110 FILLER_10_133
*111 FILLER_10_139
*112 FILLER_10_141
*113 FILLER_10_153
*114 FILLER_10_165
*115 FILLER_10_177
*116 FILLER_10_189
*117 FILLER_10_195
*118 FILLER_10_197
*119 FILLER_10_209
*120 FILLER_10_22
*121 FILLER_10_221
*122 FILLER_10_233
*123 FILLER_10_245
*124 FILLER_10_251
*125 FILLER_10_253
*126 FILLER_10_265
*127 FILLER_10_277
*128 FILLER_10_289
*129 FILLER_10_29
*130 FILLER_10_297
*131 FILLER_10_3
*132 FILLER_10_41
*133 FILLER_10_53
*134 FILLER_10_65
*135 FILLER_10_77
*136 FILLER_10_83
*137 FILLER_10_85
*138 FILLER_10_97
*139 FILLER_11_105
*140 FILLER_11_111
*141 FILLER_11_113
*142 FILLER_11_125
*143 FILLER_11_137
*144 FILLER_11_149
*145 FILLER_11_15
*146 FILLER_11_161
*147 FILLER_11_167
*148 FILLER_11_169
*149 FILLER_11_181
*150 FILLER_11_193
*151 FILLER_11_205
*152 FILLER_11_217
*153 FILLER_11_223
*154 FILLER_11_225
*155 FILLER_11_237
*156 FILLER_11_249
*157 FILLER_11_261
*158 FILLER_11_273
*159 FILLER_11_279
*160 FILLER_11_281
*161 FILLER_11_293
*162 FILLER_11_3
*163 FILLER_11_36
*164 FILLER_11_48
*165 FILLER_11_57
*166 FILLER_11_69
*167 FILLER_11_81
*168 FILLER_11_93
*169 FILLER_12_109
*170 FILLER_12_121
*171 FILLER_12_133
*172 FILLER_12_139
*173 FILLER_12_141
*174 FILLER_12_15
*175 FILLER_12_153
*176 FILLER_12_165
*177 FILLER_12_177
*178 FILLER_12_189
*179 FILLER_12_195
*180 FILLER_12_197
*181 FILLER_12_209
*182 FILLER_12_221
*183 FILLER_12_233
*184 FILLER_12_245
*185 FILLER_12_251
*186 FILLER_12_253
*187 FILLER_12_265
*188 FILLER_12_27
*189 FILLER_12_277
*190 FILLER_12_289
*191 FILLER_12_29
*192 FILLER_12_297
*193 FILLER_12_3
*194 FILLER_12_41
*195 FILLER_12_53
*196 FILLER_12_65
*197 FILLER_12_77
*198 FILLER_12_83
*199 FILLER_12_85
*200 FILLER_12_97
*201 FILLER_13_105
*202 FILLER_13_111
*203 FILLER_13_113
*204 FILLER_13_125
*205 FILLER_13_137
*206 FILLER_13_149
*207 FILLER_13_15
*208 FILLER_13_161
*209 FILLER_13_167
*210 FILLER_13_169
*211 FILLER_13_181
*212 FILLER_13_193
*213 FILLER_13_205
*214 FILLER_13_217
*215 FILLER_13_223
*216 FILLER_13_225
*217 FILLER_13_237
*218 FILLER_13_249
*219 FILLER_13_261
*220 FILLER_13_27
*221 FILLER_13_273
*222 FILLER_13_279
*223 FILLER_13_281
*224 FILLER_13_293
*225 FILLER_13_3
*226 FILLER_13_39
*227 FILLER_13_51
*228 FILLER_13_55
*229 FILLER_13_57
*230 FILLER_13_69
*231 FILLER_13_81
*232 FILLER_13_93
*233 FILLER_14_109
*234 FILLER_14_121
*235 FILLER_14_133
*236 FILLER_14_139
*237 FILLER_14_141
*238 FILLER_14_15
*239 FILLER_14_153
*240 FILLER_14_165
*241 FILLER_14_177
*242 FILLER_14_189
*243 FILLER_14_195
*244 FILLER_14_197
*245 FILLER_14_209
*246 FILLER_14_221
*247 FILLER_14_233
*248 FILLER_14_245
*249 FILLER_14_251
*250 FILLER_14_253
*251 FILLER_14_265
*252 FILLER_14_27
*253 FILLER_14_277
*254 FILLER_14_289
*255 FILLER_14_29
*256 FILLER_14_297
*257 FILLER_14_3
*258 FILLER_14_41
*259 FILLER_14_53
*260 FILLER_14_65
*261 FILLER_14_77
*262 FILLER_14_83
*263 FILLER_14_85
*264 FILLER_14_97
*265 FILLER_15_105
*266 FILLER_15_111
*267 FILLER_15_113
*268 FILLER_15_125
*269 FILLER_15_137
*270 FILLER_15_149
*271 FILLER_15_15
*272 FILLER_15_161
*273 FILLER_15_167
*274 FILLER_15_169
*275 FILLER_15_181
*276 FILLER_15_193
*277 FILLER_15_205
*278 FILLER_15_217
*279 FILLER_15_223
*280 FILLER_15_225
*281 FILLER_15_237
*282 FILLER_15_249
*283 FILLER_15_261
*284 FILLER_15_27
*285 FILLER_15_273
*286 FILLER_15_279
*287 FILLER_15_281
*288 FILLER_15_293
*289 FILLER_15_3
*290 FILLER_15_39
*291 FILLER_15_51
*292 FILLER_15_55
*293 FILLER_15_57
*294 FILLER_15_69
*295 FILLER_15_81
*296 FILLER_15_93
*297 FILLER_16_109
*298 FILLER_16_121
*299 FILLER_16_133
*300 FILLER_16_139
*301 FILLER_16_141
*302 FILLER_16_15
*303 FILLER_16_153
*304 FILLER_16_165
*305 FILLER_16_177
*306 FILLER_16_189
*307 FILLER_16_195
*308 FILLER_16_197
*309 FILLER_16_209
*310 FILLER_16_221
*311 FILLER_16_233
*312 FILLER_16_245
*313 FILLER_16_251
*314 FILLER_16_253
*315 FILLER_16_265
*316 FILLER_16_27
*317 FILLER_16_277
*318 FILLER_16_289
*319 FILLER_16_29
*320 FILLER_16_297
*321 FILLER_16_3
*322 FILLER_16_41
*323 FILLER_16_53
*324 FILLER_16_65
*325 FILLER_16_77
*326 FILLER_16_83
*327 FILLER_16_85
*328 FILLER_16_97
*329 FILLER_17_105
*330 FILLER_17_111
*331 FILLER_17_113
*332 FILLER_17_125
*333 FILLER_17_137
*334 FILLER_17_149
*335 FILLER_17_15
*336 FILLER_17_161
*337 FILLER_17_167
*338 FILLER_17_169
*339 FILLER_17_181
*340 FILLER_17_193
*341 FILLER_17_205
*342 FILLER_17_217
*343 FILLER_17_223
*344 FILLER_17_225
*345 FILLER_17_237
*346 FILLER_17_249
*347 FILLER_17_261
*348 FILLER_17_27
*349 FILLER_17_273
*350 FILLER_17_279
*351 FILLER_17_281
*352 FILLER_17_293
*353 FILLER_17_3
*354 FILLER_17_39
*355 FILLER_17_51
*356 FILLER_17_55
*357 FILLER_17_57
*358 FILLER_17_69
*359 FILLER_17_81
*360 FILLER_17_93
*361 FILLER_18_109
*362 FILLER_18_121
*363 FILLER_18_133
*364 FILLER_18_139
*365 FILLER_18_141
*366 FILLER_18_153
*367 FILLER_18_165
*368 FILLER_18_177
*369 FILLER_18_189
*370 FILLER_18_195
*371 FILLER_18_197
*372 FILLER_18_209
*373 FILLER_18_21
*374 FILLER_18_221
*375 FILLER_18_233
*376 FILLER_18_245
*377 FILLER_18_251
*378 FILLER_18_253
*379 FILLER_18_265
*380 FILLER_18_27
*381 FILLER_18_277
*382 FILLER_18_289
*383 FILLER_18_29
*384 FILLER_18_297
*385 FILLER_18_3
*386 FILLER_18_41
*387 FILLER_18_53
*388 FILLER_18_65
*389 FILLER_18_77
*390 FILLER_18_83
*391 FILLER_18_85
*392 FILLER_18_97
*393 FILLER_19_105
*394 FILLER_19_111
*395 FILLER_19_113
*396 FILLER_19_125
*397 FILLER_19_137
*398 FILLER_19_149
*399 FILLER_19_161
*400 FILLER_19_167
*401 FILLER_19_169
*402 FILLER_19_181
*403 FILLER_19_193
*404 FILLER_19_205
*405 FILLER_19_217
*406 FILLER_19_22
*407 FILLER_19_223
*408 FILLER_19_225
*409 FILLER_19_237
*410 FILLER_19_249
*411 FILLER_19_261
*412 FILLER_19_273
*413 FILLER_19_279
*414 FILLER_19_281
*415 FILLER_19_293
*416 FILLER_19_3
*417 FILLER_19_34
*418 FILLER_19_46
*419 FILLER_19_54
*420 FILLER_19_57
*421 FILLER_19_69
*422 FILLER_19_81
*423 FILLER_19_93
*424 FILLER_1_105
*425 FILLER_1_111
*426 FILLER_1_113
*427 FILLER_1_125
*428 FILLER_1_137
*429 FILLER_1_149
*430 FILLER_1_161
*431 FILLER_1_167
*432 FILLER_1_169
*433 FILLER_1_181
*434 FILLER_1_193
*435 FILLER_1_205
*436 FILLER_1_217
*437 FILLER_1_223
*438 FILLER_1_225
*439 FILLER_1_237
*440 FILLER_1_249
*441 FILLER_1_261
*442 FILLER_1_273
*443 FILLER_1_279
*444 FILLER_1_281
*445 FILLER_1_293
*446 FILLER_1_3
*447 FILLER_1_32
*448 FILLER_1_44
*449 FILLER_1_57
*450 FILLER_1_69
*451 FILLER_1_81
*452 FILLER_1_93
*453 FILLER_20_109
*454 FILLER_20_121
*455 FILLER_20_133
*456 FILLER_20_139
*457 FILLER_20_141
*458 FILLER_20_153
*459 FILLER_20_165
*460 FILLER_20_177
*461 FILLER_20_189
*462 FILLER_20_195
*463 FILLER_20_197
*464 FILLER_20_209
*465 FILLER_20_221
*466 FILLER_20_233
*467 FILLER_20_245
*468 FILLER_20_251
*469 FILLER_20_253
*470 FILLER_20_26
*471 FILLER_20_265
*472 FILLER_20_277
*473 FILLER_20_289
*474 FILLER_20_29
*475 FILLER_20_297
*476 FILLER_20_3
*477 FILLER_20_41
*478 FILLER_20_53
*479 FILLER_20_65
*480 FILLER_20_77
*481 FILLER_20_83
*482 FILLER_20_85
*483 FILLER_20_97
*484 FILLER_21_105
*485 FILLER_21_11
*486 FILLER_21_111
*487 FILLER_21_113
*488 FILLER_21_125
*489 FILLER_21_137
*490 FILLER_21_149
*491 FILLER_21_161
*492 FILLER_21_167
*493 FILLER_21_169
*494 FILLER_21_181
*495 FILLER_21_193
*496 FILLER_21_205
*497 FILLER_21_217
*498 FILLER_21_223
*499 FILLER_21_225
*500 FILLER_21_237
*501 FILLER_21_249
*502 FILLER_21_261
*503 FILLER_21_273
*504 FILLER_21_279
*505 FILLER_21_281
*506 FILLER_21_29
*507 FILLER_21_293
*508 FILLER_21_3
*509 FILLER_21_41
*510 FILLER_21_53
*511 FILLER_21_57
*512 FILLER_21_69
*513 FILLER_21_81
*514 FILLER_21_93
*515 FILLER_22_109
*516 FILLER_22_121
*517 FILLER_22_133
*518 FILLER_22_139
*519 FILLER_22_141
*520 FILLER_22_15
*521 FILLER_22_153
*522 FILLER_22_165
*523 FILLER_22_177
*524 FILLER_22_189
*525 FILLER_22_195
*526 FILLER_22_197
*527 FILLER_22_209
*528 FILLER_22_221
*529 FILLER_22_233
*530 FILLER_22_245
*531 FILLER_22_251
*532 FILLER_22_253
*533 FILLER_22_265
*534 FILLER_22_27
*535 FILLER_22_277
*536 FILLER_22_289
*537 FILLER_22_29
*538 FILLER_22_297
*539 FILLER_22_3
*540 FILLER_22_41
*541 FILLER_22_53
*542 FILLER_22_65
*543 FILLER_22_77
*544 FILLER_22_83
*545 FILLER_22_85
*546 FILLER_22_97
*547 FILLER_23_10
*548 FILLER_23_105
*549 FILLER_23_111
*550 FILLER_23_113
*551 FILLER_23_125
*552 FILLER_23_137
*553 FILLER_23_149
*554 FILLER_23_161
*555 FILLER_23_167
*556 FILLER_23_169
*557 FILLER_23_18
*558 FILLER_23_181
*559 FILLER_23_193
*560 FILLER_23_205
*561 FILLER_23_217
*562 FILLER_23_223
*563 FILLER_23_225
*564 FILLER_23_23
*565 FILLER_23_237
*566 FILLER_23_249
*567 FILLER_23_261
*568 FILLER_23_273
*569 FILLER_23_279
*570 FILLER_23_281
*571 FILLER_23_293
*572 FILLER_23_3
*573 FILLER_23_33
*574 FILLER_23_45
*575 FILLER_23_53
*576 FILLER_23_57
*577 FILLER_23_69
*578 FILLER_23_81
*579 FILLER_23_93
*580 FILLER_24_109
*581 FILLER_24_121
*582 FILLER_24_133
*583 FILLER_24_139
*584 FILLER_24_141
*585 FILLER_24_15
*586 FILLER_24_153
*587 FILLER_24_165
*588 FILLER_24_177
*589 FILLER_24_189
*590 FILLER_24_195
*591 FILLER_24_197
*592 FILLER_24_209
*593 FILLER_24_221
*594 FILLER_24_233
*595 FILLER_24_245
*596 FILLER_24_25
*597 FILLER_24_251
*598 FILLER_24_253
*599 FILLER_24_265
*600 FILLER_24_277
*601 FILLER_24_289
*602 FILLER_24_29
*603 FILLER_24_297
*604 FILLER_24_3
*605 FILLER_24_40
*606 FILLER_24_52
*607 FILLER_24_64
*608 FILLER_24_76
*609 FILLER_24_85
*610 FILLER_24_97
*611 FILLER_25_105
*612 FILLER_25_11
*613 FILLER_25_111
*614 FILLER_25_113
*615 FILLER_25_125
*616 FILLER_25_137
*617 FILLER_25_149
*618 FILLER_25_161
*619 FILLER_25_167
*620 FILLER_25_169
*621 FILLER_25_18
*622 FILLER_25_181
*623 FILLER_25_193
*624 FILLER_25_205
*625 FILLER_25_217
*626 FILLER_25_223
*627 FILLER_25_225
*628 FILLER_25_237
*629 FILLER_25_249
*630 FILLER_25_25
*631 FILLER_25_261
*632 FILLER_25_273
*633 FILLER_25_279
*634 FILLER_25_281
*635 FILLER_25_293
*636 FILLER_25_3
*637 FILLER_25_34
*638 FILLER_25_46
*639 FILLER_25_54
*640 FILLER_25_57
*641 FILLER_25_69
*642 FILLER_25_7
*643 FILLER_25_81
*644 FILLER_25_93
*645 FILLER_26_109
*646 FILLER_26_121
*647 FILLER_26_133
*648 FILLER_26_139
*649 FILLER_26_141
*650 FILLER_26_153
*651 FILLER_26_165
*652 FILLER_26_177
*653 FILLER_26_189
*654 FILLER_26_195
*655 FILLER_26_197
*656 FILLER_26_209
*657 FILLER_26_221
*658 FILLER_26_23
*659 FILLER_26_233
*660 FILLER_26_245
*661 FILLER_26_251
*662 FILLER_26_253
*663 FILLER_26_265
*664 FILLER_26_27
*665 FILLER_26_277
*666 FILLER_26_289
*667 FILLER_26_29
*668 FILLER_26_297
*669 FILLER_26_3
*670 FILLER_26_38
*671 FILLER_26_50
*672 FILLER_26_62
*673 FILLER_26_74
*674 FILLER_26_82
*675 FILLER_26_85
*676 FILLER_26_9
*677 FILLER_26_97
*678 FILLER_27_105
*679 FILLER_27_111
*680 FILLER_27_113
*681 FILLER_27_125
*682 FILLER_27_137
*683 FILLER_27_149
*684 FILLER_27_161
*685 FILLER_27_167
*686 FILLER_27_169
*687 FILLER_27_181
*688 FILLER_27_193
*689 FILLER_27_205
*690 FILLER_27_21
*691 FILLER_27_217
*692 FILLER_27_223
*693 FILLER_27_225
*694 FILLER_27_237
*695 FILLER_27_249
*696 FILLER_27_261
*697 FILLER_27_273
*698 FILLER_27_279
*699 FILLER_27_28
*700 FILLER_27_281
*701 FILLER_27_293
*702 FILLER_27_3
*703 FILLER_27_39
*704 FILLER_27_51
*705 FILLER_27_55
*706 FILLER_27_57
*707 FILLER_27_69
*708 FILLER_27_81
*709 FILLER_27_93
*710 FILLER_28_109
*711 FILLER_28_121
*712 FILLER_28_133
*713 FILLER_28_139
*714 FILLER_28_141
*715 FILLER_28_153
*716 FILLER_28_165
*717 FILLER_28_17
*718 FILLER_28_177
*719 FILLER_28_189
*720 FILLER_28_195
*721 FILLER_28_197
*722 FILLER_28_209
*723 FILLER_28_221
*724 FILLER_28_233
*725 FILLER_28_245
*726 FILLER_28_251
*727 FILLER_28_253
*728 FILLER_28_26
*729 FILLER_28_265
*730 FILLER_28_277
*731 FILLER_28_289
*732 FILLER_28_29
*733 FILLER_28_297
*734 FILLER_28_3
*735 FILLER_28_41
*736 FILLER_28_53
*737 FILLER_28_65
*738 FILLER_28_77
*739 FILLER_28_83
*740 FILLER_28_85
*741 FILLER_28_97
*742 FILLER_29_105
*743 FILLER_29_111
*744 FILLER_29_113
*745 FILLER_29_12
*746 FILLER_29_125
*747 FILLER_29_137
*748 FILLER_29_149
*749 FILLER_29_161
*750 FILLER_29_167
*751 FILLER_29_169
*752 FILLER_29_181
*753 FILLER_29_193
*754 FILLER_29_205
*755 FILLER_29_217
*756 FILLER_29_223
*757 FILLER_29_225
*758 FILLER_29_237
*759 FILLER_29_24
*760 FILLER_29_249
*761 FILLER_29_261
*762 FILLER_29_273
*763 FILLER_29_279
*764 FILLER_29_281
*765 FILLER_29_293
*766 FILLER_29_3
*767 FILLER_29_30
*768 FILLER_29_35
*769 FILLER_29_47
*770 FILLER_29_55
*771 FILLER_29_57
*772 FILLER_29_69
*773 FILLER_29_81
*774 FILLER_29_93
*775 FILLER_2_109
*776 FILLER_2_121
*777 FILLER_2_133
*778 FILLER_2_139
*779 FILLER_2_141
*780 FILLER_2_153
*781 FILLER_2_165
*782 FILLER_2_177
*783 FILLER_2_189
*784 FILLER_2_195
*785 FILLER_2_197
*786 FILLER_2_209
*787 FILLER_2_22
*788 FILLER_2_221
*789 FILLER_2_233
*790 FILLER_2_245
*791 FILLER_2_251
*792 FILLER_2_253
*793 FILLER_2_265
*794 FILLER_2_277
*795 FILLER_2_289
*796 FILLER_2_29
*797 FILLER_2_297
*798 FILLER_2_3
*799 FILLER_2_47
*800 FILLER_2_59
*801 FILLER_2_71
*802 FILLER_2_83
*803 FILLER_2_85
*804 FILLER_2_97
*805 FILLER_30_109
*806 FILLER_30_121
*807 FILLER_30_133
*808 FILLER_30_139
*809 FILLER_30_141
*810 FILLER_30_153
*811 FILLER_30_165
*812 FILLER_30_177
*813 FILLER_30_189
*814 FILLER_30_195
*815 FILLER_30_197
*816 FILLER_30_209
*817 FILLER_30_221
*818 FILLER_30_233
*819 FILLER_30_245
*820 FILLER_30_25
*821 FILLER_30_251
*822 FILLER_30_253
*823 FILLER_30_265
*824 FILLER_30_277
*825 FILLER_30_289
*826 FILLER_30_29
*827 FILLER_30_297
*828 FILLER_30_3
*829 FILLER_30_36
*830 FILLER_30_45
*831 FILLER_30_57
*832 FILLER_30_69
*833 FILLER_30_8
*834 FILLER_30_81
*835 FILLER_30_85
*836 FILLER_30_97
*837 FILLER_31_105
*838 FILLER_31_111
*839 FILLER_31_113
*840 FILLER_31_125
*841 FILLER_31_137
*842 FILLER_31_149
*843 FILLER_31_161
*844 FILLER_31_167
*845 FILLER_31_169
*846 FILLER_31_181
*847 FILLER_31_193
*848 FILLER_31_205
*849 FILLER_31_217
*850 FILLER_31_223
*851 FILLER_31_225
*852 FILLER_31_237
*853 FILLER_31_249
*854 FILLER_31_261
*855 FILLER_31_273
*856 FILLER_31_279
*857 FILLER_31_281
*858 FILLER_31_293
*859 FILLER_31_3
*860 FILLER_31_32
*861 FILLER_31_46
*862 FILLER_31_54
*863 FILLER_31_57
*864 FILLER_31_69
*865 FILLER_31_81
*866 FILLER_31_93
*867 FILLER_32_109
*868 FILLER_32_121
*869 FILLER_32_13
*870 FILLER_32_133
*871 FILLER_32_139
*872 FILLER_32_141
*873 FILLER_32_153
*874 FILLER_32_165
*875 FILLER_32_177
*876 FILLER_32_189
*877 FILLER_32_195
*878 FILLER_32_197
*879 FILLER_32_20
*880 FILLER_32_209
*881 FILLER_32_221
*882 FILLER_32_233
*883 FILLER_32_245
*884 FILLER_32_251
*885 FILLER_32_253
*886 FILLER_32_265
*887 FILLER_32_277
*888 FILLER_32_289
*889 FILLER_32_29
*890 FILLER_32_297
*891 FILLER_32_3
*892 FILLER_32_36
*893 FILLER_32_48
*894 FILLER_32_60
*895 FILLER_32_72
*896 FILLER_32_85
*897 FILLER_32_9
*898 FILLER_32_97
*899 FILLER_33_105
*900 FILLER_33_111
*901 FILLER_33_113
*902 FILLER_33_12
*903 FILLER_33_125
*904 FILLER_33_137
*905 FILLER_33_149
*906 FILLER_33_161
*907 FILLER_33_167
*908 FILLER_33_169
*909 FILLER_33_181
*910 FILLER_33_193
*911 FILLER_33_205
*912 FILLER_33_217
*913 FILLER_33_22
*914 FILLER_33_223
*915 FILLER_33_225
*916 FILLER_33_237
*917 FILLER_33_249
*918 FILLER_33_261
*919 FILLER_33_273
*920 FILLER_33_279
*921 FILLER_33_28
*922 FILLER_33_281
*923 FILLER_33_293
*924 FILLER_33_3
*925 FILLER_33_37
*926 FILLER_33_49
*927 FILLER_33_55
*928 FILLER_33_57
*929 FILLER_33_69
*930 FILLER_33_81
*931 FILLER_33_93
*932 FILLER_34_109
*933 FILLER_34_121
*934 FILLER_34_133
*935 FILLER_34_139
*936 FILLER_34_141
*937 FILLER_34_153
*938 FILLER_34_165
*939 FILLER_34_177
*940 FILLER_34_189
*941 FILLER_34_195
*942 FILLER_34_197
*943 FILLER_34_20
*944 FILLER_34_209
*945 FILLER_34_221
*946 FILLER_34_233
*947 FILLER_34_245
*948 FILLER_34_251
*949 FILLER_34_253
*950 FILLER_34_265
*951 FILLER_34_277
*952 FILLER_34_289
*953 FILLER_34_29
*954 FILLER_34_297
*955 FILLER_34_3
*956 FILLER_34_38
*957 FILLER_34_50
*958 FILLER_34_62
*959 FILLER_34_74
*960 FILLER_34_82
*961 FILLER_34_85
*962 FILLER_34_97
*963 FILLER_35_105
*964 FILLER_35_11
*965 FILLER_35_111
*966 FILLER_35_113
*967 FILLER_35_125
*968 FILLER_35_137
*969 FILLER_35_149
*970 FILLER_35_161
*971 FILLER_35_167
*972 FILLER_35_169
*973 FILLER_35_181
*974 FILLER_35_193
*975 FILLER_35_205
*976 FILLER_35_217
*977 FILLER_35_223
*978 FILLER_35_225
*979 FILLER_35_237
*980 FILLER_35_249
*981 FILLER_35_261
*982 FILLER_35_273
*983 FILLER_35_279
*984 FILLER_35_28
*985 FILLER_35_281
*986 FILLER_35_293
*987 FILLER_35_3
*988 FILLER_35_36
*989 FILLER_35_48
*990 FILLER_35_57
*991 FILLER_35_69
*992 FILLER_35_81
*993 FILLER_35_93
*994 FILLER_36_109
*995 FILLER_36_121
*996 FILLER_36_133
*997 FILLER_36_139
*998 FILLER_36_14
*999 FILLER_36_141
*1000 FILLER_36_153
*1001 FILLER_36_165
*1002 FILLER_36_177
*1003 FILLER_36_189
*1004 FILLER_36_195
*1005 FILLER_36_197
*1006 FILLER_36_209
*1007 FILLER_36_21
*1008 FILLER_36_221
*1009 FILLER_36_233
*1010 FILLER_36_245
*1011 FILLER_36_251
*1012 FILLER_36_253
*1013 FILLER_36_265
*1014 FILLER_36_27
*1015 FILLER_36_277
*1016 FILLER_36_289
*1017 FILLER_36_29
*1018 FILLER_36_297
*1019 FILLER_36_3
*1020 FILLER_36_34
*1021 FILLER_36_46
*1022 FILLER_36_58
*1023 FILLER_36_70
*1024 FILLER_36_8
*1025 FILLER_36_82
*1026 FILLER_36_85
*1027 FILLER_36_97
*1028 FILLER_37_105
*1029 FILLER_37_111
*1030 FILLER_37_113
*1031 FILLER_37_12
*1032 FILLER_37_125
*1033 FILLER_37_137
*1034 FILLER_37_149
*1035 FILLER_37_16
*1036 FILLER_37_161
*1037 FILLER_37_167
*1038 FILLER_37_169
*1039 FILLER_37_181
*1040 FILLER_37_193
*1041 FILLER_37_205
*1042 FILLER_37_217
*1043 FILLER_37_223
*1044 FILLER_37_225
*1045 FILLER_37_23
*1046 FILLER_37_237
*1047 FILLER_37_249
*1048 FILLER_37_261
*1049 FILLER_37_273
*1050 FILLER_37_279
*1051 FILLER_37_281
*1052 FILLER_37_293
*1053 FILLER_37_3
*1054 FILLER_37_35
*1055 FILLER_37_47
*1056 FILLER_37_55
*1057 FILLER_37_57
*1058 FILLER_37_69
*1059 FILLER_37_81
*1060 FILLER_37_93
*1061 FILLER_38_109
*1062 FILLER_38_121
*1063 FILLER_38_133
*1064 FILLER_38_139
*1065 FILLER_38_141
*1066 FILLER_38_153
*1067 FILLER_38_165
*1068 FILLER_38_17
*1069 FILLER_38_177
*1070 FILLER_38_189
*1071 FILLER_38_195
*1072 FILLER_38_197
*1073 FILLER_38_209
*1074 FILLER_38_221
*1075 FILLER_38_233
*1076 FILLER_38_24
*1077 FILLER_38_245
*1078 FILLER_38_251
*1079 FILLER_38_253
*1080 FILLER_38_265
*1081 FILLER_38_277
*1082 FILLER_38_289
*1083 FILLER_38_29
*1084 FILLER_38_297
*1085 FILLER_38_3
*1086 FILLER_38_41
*1087 FILLER_38_53
*1088 FILLER_38_65
*1089 FILLER_38_77
*1090 FILLER_38_83
*1091 FILLER_38_85
*1092 FILLER_38_97
*1093 FILLER_39_105
*1094 FILLER_39_111
*1095 FILLER_39_113
*1096 FILLER_39_125
*1097 FILLER_39_137
*1098 FILLER_39_149
*1099 FILLER_39_161
*1100 FILLER_39_167
*1101 FILLER_39_169
*1102 FILLER_39_181
*1103 FILLER_39_193
*1104 FILLER_39_20
*1105 FILLER_39_205
*1106 FILLER_39_217
*1107 FILLER_39_223
*1108 FILLER_39_225
*1109 FILLER_39_237
*1110 FILLER_39_249
*1111 FILLER_39_261
*1112 FILLER_39_273
*1113 FILLER_39_279
*1114 FILLER_39_281
*1115 FILLER_39_293
*1116 FILLER_39_3
*1117 FILLER_39_32
*1118 FILLER_39_44
*1119 FILLER_39_57
*1120 FILLER_39_69
*1121 FILLER_39_8
*1122 FILLER_39_81
*1123 FILLER_39_93
*1124 FILLER_3_105
*1125 FILLER_3_11
*1126 FILLER_3_111
*1127 FILLER_3_113
*1128 FILLER_3_125
*1129 FILLER_3_137
*1130 FILLER_3_149
*1131 FILLER_3_15
*1132 FILLER_3_161
*1133 FILLER_3_167
*1134 FILLER_3_169
*1135 FILLER_3_181
*1136 FILLER_3_193
*1137 FILLER_3_205
*1138 FILLER_3_217
*1139 FILLER_3_223
*1140 FILLER_3_225
*1141 FILLER_3_237
*1142 FILLER_3_249
*1143 FILLER_3_261
*1144 FILLER_3_273
*1145 FILLER_3_279
*1146 FILLER_3_281
*1147 FILLER_3_293
*1148 FILLER_3_3
*1149 FILLER_3_36
*1150 FILLER_3_48
*1151 FILLER_3_57
*1152 FILLER_3_69
*1153 FILLER_3_81
*1154 FILLER_3_93
*1155 FILLER_40_109
*1156 FILLER_40_121
*1157 FILLER_40_133
*1158 FILLER_40_139
*1159 FILLER_40_141
*1160 FILLER_40_15
*1161 FILLER_40_153
*1162 FILLER_40_165
*1163 FILLER_40_177
*1164 FILLER_40_189
*1165 FILLER_40_195
*1166 FILLER_40_197
*1167 FILLER_40_209
*1168 FILLER_40_221
*1169 FILLER_40_233
*1170 FILLER_40_245
*1171 FILLER_40_251
*1172 FILLER_40_253
*1173 FILLER_40_265
*1174 FILLER_40_27
*1175 FILLER_40_277
*1176 FILLER_40_289
*1177 FILLER_40_29
*1178 FILLER_40_297
*1179 FILLER_40_3
*1180 FILLER_40_41
*1181 FILLER_40_53
*1182 FILLER_40_65
*1183 FILLER_40_77
*1184 FILLER_40_83
*1185 FILLER_40_85
*1186 FILLER_40_97
*1187 FILLER_41_105
*1188 FILLER_41_111
*1189 FILLER_41_113
*1190 FILLER_41_125
*1191 FILLER_41_137
*1192 FILLER_41_149
*1193 FILLER_41_15
*1194 FILLER_41_161
*1195 FILLER_41_167
*1196 FILLER_41_169
*1197 FILLER_41_181
*1198 FILLER_41_193
*1199 FILLER_41_205
*1200 FILLER_41_217
*1201 FILLER_41_223
*1202 FILLER_41_225
*1203 FILLER_41_237
*1204 FILLER_41_249
*1205 FILLER_41_261
*1206 FILLER_41_27
*1207 FILLER_41_273
*1208 FILLER_41_279
*1209 FILLER_41_281
*1210 FILLER_41_293
*1211 FILLER_41_3
*1212 FILLER_41_39
*1213 FILLER_41_51
*1214 FILLER_41_55
*1215 FILLER_41_57
*1216 FILLER_41_69
*1217 FILLER_41_81
*1218 FILLER_41_93
*1219 FILLER_42_109
*1220 FILLER_42_121
*1221 FILLER_42_133
*1222 FILLER_42_139
*1223 FILLER_42_141
*1224 FILLER_42_15
*1225 FILLER_42_153
*1226 FILLER_42_165
*1227 FILLER_42_177
*1228 FILLER_42_189
*1229 FILLER_42_195
*1230 FILLER_42_197
*1231 FILLER_42_209
*1232 FILLER_42_221
*1233 FILLER_42_233
*1234 FILLER_42_245
*1235 FILLER_42_251
*1236 FILLER_42_253
*1237 FILLER_42_265
*1238 FILLER_42_27
*1239 FILLER_42_277
*1240 FILLER_42_289
*1241 FILLER_42_29
*1242 FILLER_42_297
*1243 FILLER_42_3
*1244 FILLER_42_41
*1245 FILLER_42_53
*1246 FILLER_42_65
*1247 FILLER_42_77
*1248 FILLER_42_83
*1249 FILLER_42_85
*1250 FILLER_42_97
*1251 FILLER_43_105
*1252 FILLER_43_111
*1253 FILLER_43_113
*1254 FILLER_43_125
*1255 FILLER_43_137
*1256 FILLER_43_149
*1257 FILLER_43_15
*1258 FILLER_43_161
*1259 FILLER_43_167
*1260 FILLER_43_169
*1261 FILLER_43_181
*1262 FILLER_43_193
*1263 FILLER_43_205
*1264 FILLER_43_217
*1265 FILLER_43_223
*1266 FILLER_43_225
*1267 FILLER_43_237
*1268 FILLER_43_249
*1269 FILLER_43_261
*1270 FILLER_43_27
*1271 FILLER_43_273
*1272 FILLER_43_279
*1273 FILLER_43_281
*1274 FILLER_43_293
*1275 FILLER_43_3
*1276 FILLER_43_39
*1277 FILLER_43_51
*1278 FILLER_43_55
*1279 FILLER_43_57
*1280 FILLER_43_69
*1281 FILLER_43_81
*1282 FILLER_43_93
*1283 FILLER_44_109
*1284 FILLER_44_121
*1285 FILLER_44_133
*1286 FILLER_44_139
*1287 FILLER_44_141
*1288 FILLER_44_15
*1289 FILLER_44_153
*1290 FILLER_44_165
*1291 FILLER_44_177
*1292 FILLER_44_189
*1293 FILLER_44_195
*1294 FILLER_44_197
*1295 FILLER_44_209
*1296 FILLER_44_221
*1297 FILLER_44_233
*1298 FILLER_44_245
*1299 FILLER_44_251
*1300 FILLER_44_253
*1301 FILLER_44_265
*1302 FILLER_44_27
*1303 FILLER_44_277
*1304 FILLER_44_289
*1305 FILLER_44_29
*1306 FILLER_44_297
*1307 FILLER_44_3
*1308 FILLER_44_41
*1309 FILLER_44_53
*1310 FILLER_44_65
*1311 FILLER_44_77
*1312 FILLER_44_83
*1313 FILLER_44_85
*1314 FILLER_44_97
*1315 FILLER_45_105
*1316 FILLER_45_111
*1317 FILLER_45_113
*1318 FILLER_45_125
*1319 FILLER_45_137
*1320 FILLER_45_149
*1321 FILLER_45_15
*1322 FILLER_45_161
*1323 FILLER_45_167
*1324 FILLER_45_169
*1325 FILLER_45_181
*1326 FILLER_45_193
*1327 FILLER_45_205
*1328 FILLER_45_217
*1329 FILLER_45_223
*1330 FILLER_45_225
*1331 FILLER_45_237
*1332 FILLER_45_249
*1333 FILLER_45_261
*1334 FILLER_45_27
*1335 FILLER_45_273
*1336 FILLER_45_279
*1337 FILLER_45_281
*1338 FILLER_45_293
*1339 FILLER_45_3
*1340 FILLER_45_39
*1341 FILLER_45_51
*1342 FILLER_45_55
*1343 FILLER_45_57
*1344 FILLER_45_69
*1345 FILLER_45_81
*1346 FILLER_45_93
*1347 FILLER_46_109
*1348 FILLER_46_121
*1349 FILLER_46_133
*1350 FILLER_46_139
*1351 FILLER_46_141
*1352 FILLER_46_15
*1353 FILLER_46_153
*1354 FILLER_46_165
*1355 FILLER_46_177
*1356 FILLER_46_189
*1357 FILLER_46_195
*1358 FILLER_46_197
*1359 FILLER_46_209
*1360 FILLER_46_221
*1361 FILLER_46_233
*1362 FILLER_46_245
*1363 FILLER_46_251
*1364 FILLER_46_253
*1365 FILLER_46_265
*1366 FILLER_46_27
*1367 FILLER_46_277
*1368 FILLER_46_289
*1369 FILLER_46_29
*1370 FILLER_46_297
*1371 FILLER_46_3
*1372 FILLER_46_41
*1373 FILLER_46_53
*1374 FILLER_46_65
*1375 FILLER_46_77
*1376 FILLER_46_83
*1377 FILLER_46_85
*1378 FILLER_46_97
*1379 FILLER_47_105
*1380 FILLER_47_111
*1381 FILLER_47_113
*1382 FILLER_47_125
*1383 FILLER_47_137
*1384 FILLER_47_149
*1385 FILLER_47_15
*1386 FILLER_47_161
*1387 FILLER_47_167
*1388 FILLER_47_169
*1389 FILLER_47_181
*1390 FILLER_47_193
*1391 FILLER_47_205
*1392 FILLER_47_217
*1393 FILLER_47_223
*1394 FILLER_47_225
*1395 FILLER_47_237
*1396 FILLER_47_249
*1397 FILLER_47_261
*1398 FILLER_47_27
*1399 FILLER_47_273
*1400 FILLER_47_279
*1401 FILLER_47_281
*1402 FILLER_47_293
*1403 FILLER_47_3
*1404 FILLER_47_39
*1405 FILLER_47_51
*1406 FILLER_47_55
*1407 FILLER_47_57
*1408 FILLER_47_69
*1409 FILLER_47_81
*1410 FILLER_47_93
*1411 FILLER_48_109
*1412 FILLER_48_121
*1413 FILLER_48_133
*1414 FILLER_48_139
*1415 FILLER_48_141
*1416 FILLER_48_15
*1417 FILLER_48_153
*1418 FILLER_48_165
*1419 FILLER_48_177
*1420 FILLER_48_189
*1421 FILLER_48_195
*1422 FILLER_48_197
*1423 FILLER_48_209
*1424 FILLER_48_221
*1425 FILLER_48_233
*1426 FILLER_48_245
*1427 FILLER_48_251
*1428 FILLER_48_253
*1429 FILLER_48_265
*1430 FILLER_48_27
*1431 FILLER_48_277
*1432 FILLER_48_289
*1433 FILLER_48_29
*1434 FILLER_48_297
*1435 FILLER_48_3
*1436 FILLER_48_41
*1437 FILLER_48_53
*1438 FILLER_48_65
*1439 FILLER_48_77
*1440 FILLER_48_83
*1441 FILLER_48_85
*1442 FILLER_48_97
*1443 FILLER_49_105
*1444 FILLER_49_111
*1445 FILLER_49_113
*1446 FILLER_49_125
*1447 FILLER_49_137
*1448 FILLER_49_149
*1449 FILLER_49_15
*1450 FILLER_49_161
*1451 FILLER_49_167
*1452 FILLER_49_169
*1453 FILLER_49_181
*1454 FILLER_49_193
*1455 FILLER_49_205
*1456 FILLER_49_217
*1457 FILLER_49_223
*1458 FILLER_49_225
*1459 FILLER_49_237
*1460 FILLER_49_249
*1461 FILLER_49_261
*1462 FILLER_49_27
*1463 FILLER_49_273
*1464 FILLER_49_279
*1465 FILLER_49_281
*1466 FILLER_49_293
*1467 FILLER_49_3
*1468 FILLER_49_39
*1469 FILLER_49_51
*1470 FILLER_49_55
*1471 FILLER_49_57
*1472 FILLER_49_69
*1473 FILLER_49_81
*1474 FILLER_49_93
*1475 FILLER_4_109
*1476 FILLER_4_121
*1477 FILLER_4_133
*1478 FILLER_4_139
*1479 FILLER_4_141
*1480 FILLER_4_153
*1481 FILLER_4_165
*1482 FILLER_4_177
*1483 FILLER_4_189
*1484 FILLER_4_195
*1485 FILLER_4_197
*1486 FILLER_4_209
*1487 FILLER_4_22
*1488 FILLER_4_221
*1489 FILLER_4_233
*1490 FILLER_4_245
*1491 FILLER_4_251
*1492 FILLER_4_253
*1493 FILLER_4_265
*1494 FILLER_4_277
*1495 FILLER_4_289
*1496 FILLER_4_29
*1497 FILLER_4_297
*1498 FILLER_4_3
*1499 FILLER_4_41
*1500 FILLER_4_53
*1501 FILLER_4_65
*1502 FILLER_4_77
*1503 FILLER_4_83
*1504 FILLER_4_85
*1505 FILLER_4_97
*1506 FILLER_50_109
*1507 FILLER_50_121
*1508 FILLER_50_133
*1509 FILLER_50_139
*1510 FILLER_50_141
*1511 FILLER_50_15
*1512 FILLER_50_153
*1513 FILLER_50_165
*1514 FILLER_50_177
*1515 FILLER_50_189
*1516 FILLER_50_195
*1517 FILLER_50_197
*1518 FILLER_50_209
*1519 FILLER_50_221
*1520 FILLER_50_233
*1521 FILLER_50_245
*1522 FILLER_50_251
*1523 FILLER_50_253
*1524 FILLER_50_265
*1525 FILLER_50_27
*1526 FILLER_50_277
*1527 FILLER_50_289
*1528 FILLER_50_29
*1529 FILLER_50_297
*1530 FILLER_50_3
*1531 FILLER_50_41
*1532 FILLER_50_53
*1533 FILLER_50_65
*1534 FILLER_50_77
*1535 FILLER_50_83
*1536 FILLER_50_85
*1537 FILLER_50_97
*1538 FILLER_51_105
*1539 FILLER_51_111
*1540 FILLER_51_113
*1541 FILLER_51_125
*1542 FILLER_51_137
*1543 FILLER_51_149
*1544 FILLER_51_15
*1545 FILLER_51_161
*1546 FILLER_51_167
*1547 FILLER_51_169
*1548 FILLER_51_181
*1549 FILLER_51_193
*1550 FILLER_51_205
*1551 FILLER_51_217
*1552 FILLER_51_223
*1553 FILLER_51_225
*1554 FILLER_51_237
*1555 FILLER_51_249
*1556 FILLER_51_261
*1557 FILLER_51_27
*1558 FILLER_51_273
*1559 FILLER_51_279
*1560 FILLER_51_281
*1561 FILLER_51_293
*1562 FILLER_51_3
*1563 FILLER_51_39
*1564 FILLER_51_51
*1565 FILLER_51_55
*1566 FILLER_51_57
*1567 FILLER_51_69
*1568 FILLER_51_81
*1569 FILLER_51_93
*1570 FILLER_52_109
*1571 FILLER_52_121
*1572 FILLER_52_133
*1573 FILLER_52_139
*1574 FILLER_52_141
*1575 FILLER_52_15
*1576 FILLER_52_153
*1577 FILLER_52_165
*1578 FILLER_52_177
*1579 FILLER_52_189
*1580 FILLER_52_195
*1581 FILLER_52_197
*1582 FILLER_52_209
*1583 FILLER_52_221
*1584 FILLER_52_233
*1585 FILLER_52_245
*1586 FILLER_52_251
*1587 FILLER_52_253
*1588 FILLER_52_265
*1589 FILLER_52_27
*1590 FILLER_52_277
*1591 FILLER_52_289
*1592 FILLER_52_29
*1593 FILLER_52_297
*1594 FILLER_52_3
*1595 FILLER_52_41
*1596 FILLER_52_53
*1597 FILLER_52_65
*1598 FILLER_52_77