*SPEF "ieee 1481-1999"
*DESIGN "s4ga"
*DATE "11:11:11 Fri 11 11, 1111"
*VENDOR "OpenRCX"
*PROGRAM "Parallel Extraction"
*VERSION "1.0"
*DESIGN_FLOW "NAME_SCOPE LOCAL" "PIN_CAP NONE"
*DIVIDER /
*DELIMITER :
*BUS_DELIMITER []
*T_UNIT 1 NS
*C_UNIT 1 PF
*R_UNIT 1 OHM
*L_UNIT 1 HENRY

*NAME_MAP
*1 io_in[0]
*2 io_in[1]
*3 io_in[2]
*4 io_in[3]
*5 io_in[4]
*6 io_in[5]
*7 io_in[6]
*8 io_in[7]
*9 io_out[0]
*10 io_out[1]
*11 io_out[2]
*12 io_out[3]
*13 io_out[4]
*14 io_out[5]
*15 io_out[6]
*16 io_out[7]
*19 _000_
*20 _001_
*21 _002_
*22 _003_
*23 _004_
*24 _005_
*25 _006_
*26 _007_
*27 _008_
*28 _009_
*29 _010_
*30 _011_
*31 _012_
*32 _013_
*33 _014_
*34 _015_
*35 _016_
*36 _017_
*37 _018_
*38 _019_
*39 _020_
*40 _021_
*41 _022_
*42 _023_
*43 _024_
*44 _025_
*45 _026_
*46 _027_
*47 _028_
*48 _029_
*49 _030_
*50 _031_
*51 _032_
*52 _033_
*53 _034_
*54 _035_
*55 _036_
*56 _037_
*57 _038_
*58 _039_
*59 _040_
*60 _041_
*61 _042_
*62 _043_
*63 _044_
*64 _045_
*65 _046_
*66 _047_
*67 _048_
*68 _049_
*69 _050_
*70 _051_
*71 _052_
*72 _053_
*73 _054_
*74 _055_
*75 _056_
*76 _057_
*77 _058_
*78 _059_
*79 _060_
*80 _061_
*81 _062_
*82 _063_
*83 _064_
*84 _065_
*85 _066_
*86 _067_
*87 _068_
*88 _069_
*89 _070_
*90 _071_
*91 _072_
*92 _073_
*93 _074_
*94 _075_
*95 _076_
*96 _077_
*97 _078_
*98 _079_
*99 _080_
*100 _081_
*101 _082_
*102 _083_
*103 _084_
*104 _085_
*105 _086_
*106 _087_
*107 _088_
*108 _089_
*109 _090_
*110 _091_
*111 _092_
*112 _093_
*113 _094_
*114 _095_
*115 _096_
*116 _097_
*117 _098_
*118 _099_
*119 _100_
*120 _101_
*121 _102_
*122 _103_
*123 _104_
*124 _105_
*125 _106_
*126 _107_
*127 _108_
*128 _109_
*129 _110_
*130 _111_
*131 _112_
*132 _113_
*133 _114_
*134 _115_
*135 _116_
*136 _117_
*137 _118_
*138 _119_
*139 _120_
*140 _121_
*141 _122_
*142 _123_
*143 _124_
*144 _125_
*145 _126_
*146 _127_
*147 _128_
*148 _129_
*149 _130_
*150 _131_
*151 _132_
*152 _133_
*153 _134_
*154 _135_
*155 _136_
*156 _137_
*157 _138_
*158 _139_
*159 _140_
*160 _141_
*161 _142_
*162 _143_
*163 _144_
*164 _145_
*165 _146_
*166 _147_
*167 _148_
*168 _149_
*169 _150_
*170 _151_
*171 _152_
*172 _153_
*173 _154_
*174 _155_
*175 _156_
*176 _157_
*177 _158_
*178 _159_
*179 _160_
*180 _161_
*181 _162_
*182 _163_
*183 _164_
*184 _165_
*185 _166_
*186 _167_
*187 _168_
*188 _169_
*189 _170_
*190 _171_
*191 _172_
*192 _173_
*193 _174_
*194 _175_
*195 _176_
*196 _177_
*197 _178_
*198 _179_
*199 _180_
*200 _181_
*201 _182_
*202 _183_
*203 _184_
*204 _185_
*205 _186_
*206 _187_
*207 _188_
*208 _189_
*209 _190_
*210 _191_
*211 _192_
*212 _193_
*213 _194_
*214 _195_
*215 _196_
*216 _197_
*217 _198_
*218 _199_
*219 _200_
*220 _201_
*221 _202_
*222 _203_
*223 _204_
*224 _205_
*225 _206_
*226 _207_
*227 _208_
*228 _209_
*229 _210_
*230 _211_
*231 _212_
*232 _213_
*233 _214_
*234 _215_
*235 _216_
*236 _217_
*237 _218_
*238 _219_
*239 _220_
*240 _221_
*241 _222_
*242 _223_
*243 _224_
*244 _225_
*245 _226_
*246 _227_
*247 _228_
*248 _229_
*249 _230_
*250 _231_
*251 _232_
*252 _233_
*253 _234_
*254 _235_
*255 _236_
*256 _237_
*257 _238_
*258 _239_
*259 _240_
*260 _241_
*261 _242_
*262 _243_
*263 _244_
*264 _245_
*265 _246_
*266 _247_
*267 _248_
*268 _249_
*269 _250_
*270 _251_
*271 _252_
*272 _253_
*273 _254_
*274 _255_
*275 _256_
*276 _257_
*277 _258_
*278 _259_
*279 _260_
*280 _261_
*281 _262_
*282 _263_
*283 _264_
*284 _265_
*285 _266_
*286 _267_
*287 _268_
*288 _269_
*289 _270_
*290 _271_
*291 _272_
*292 _273_
*293 _274_
*294 _275_
*295 _276_
*296 _277_
*297 _278_
*298 _279_
*299 _280_
*300 _281_
*301 _282_
*302 _283_
*303 _284_
*304 _285_
*305 _286_
*306 _287_
*307 _288_
*308 _289_
*309 _290_
*310 _291_
*311 _292_
*312 _293_
*313 _294_
*314 _295_
*315 _296_
*316 _297_
*317 _298_
*318 _299_
*319 _300_
*320 _301_
*321 _302_
*322 _303_
*323 _304_
*324 _305_
*325 _306_
*326 _307_
*327 _308_
*328 _309_
*329 all_in\[100\]
*330 all_in\[101\]
*331 all_in\[102\]
*332 all_in\[103\]
*333 all_in\[104\]
*334 all_in\[105\]
*335 all_in\[106\]
*336 all_in\[107\]
*337 all_in\[108\]
*338 all_in\[109\]
*339 all_in\[10\]
*340 all_in\[110\]
*341 all_in\[111\]
*342 all_in\[112\]
*343 all_in\[113\]
*344 all_in\[114\]
*345 all_in\[115\]
*346 all_in\[116\]
*347 all_in\[117\]
*348 all_in\[118\]
*349 all_in\[119\]
*350 all_in\[11\]
*351 all_in\[120\]
*352 all_in\[121\]
*353 all_in\[122\]
*354 all_in\[123\]
*355 all_in\[124\]
*356 all_in\[125\]
*357 all_in\[126\]
*358 all_in\[127\]
*359 all_in\[128\]
*360 all_in\[129\]
*361 all_in\[12\]
*362 all_in\[130\]
*363 all_in\[131\]
*364 all_in\[132\]
*365 all_in\[133\]
*366 all_in\[134\]
*367 all_in\[135\]
*368 all_in\[136\]
*369 all_in\[137\]
*370 all_in\[138\]
*371 all_in\[139\]
*372 all_in\[13\]
*373 all_in\[140\]
*374 all_in\[141\]
*375 all_in\[142\]
*376 all_in\[143\]
*377 all_in\[144\]
*378 all_in\[145\]
*379 all_in\[146\]
*380 all_in\[147\]
*381 all_in\[148\]
*382 all_in\[149\]
*383 all_in\[14\]
*384 all_in\[150\]
*385 all_in\[151\]
*386 all_in\[152\]
*387 all_in\[153\]
*388 all_in\[154\]
*389 all_in\[155\]
*390 all_in\[156\]
*391 all_in\[157\]
*392 all_in\[158\]
*393 all_in\[159\]
*394 all_in\[15\]
*395 all_in\[160\]
*396 all_in\[161\]
*397 all_in\[162\]
*398 all_in\[163\]
*399 all_in\[164\]
*400 all_in\[165\]
*401 all_in\[166\]
*402 all_in\[167\]
*403 all_in\[168\]
*404 all_in\[169\]
*405 all_in\[16\]
*406 all_in\[170\]
*407 all_in\[171\]
*408 all_in\[172\]
*409 all_in\[173\]
*410 all_in\[174\]
*411 all_in\[175\]
*412 all_in\[176\]
*413 all_in\[177\]
*414 all_in\[178\]
*415 all_in\[179\]
*416 all_in\[17\]
*417 all_in\[180\]
*418 all_in\[181\]
*419 all_in\[182\]
*420 all_in\[183\]
*421 all_in\[184\]
*422 all_in\[185\]
*423 all_in\[186\]
*424 all_in\[187\]
*425 all_in\[188\]
*426 all_in\[189\]
*427 all_in\[18\]
*428 all_in\[190\]
*429 all_in\[191\]
*430 all_in\[192\]
*431 all_in\[193\]
*432 all_in\[194\]
*433 all_in\[195\]
*434 all_in\[196\]
*435 all_in\[197\]
*436 all_in\[198\]
*437 all_in\[199\]
*438 all_in\[19\]
*439 all_in\[200\]
*440 all_in\[201\]
*441 all_in\[202\]
*442 all_in\[203\]
*443 all_in\[204\]
*444 all_in\[205\]
*445 all_in\[206\]
*446 all_in\[207\]
*447 all_in\[208\]
*448 all_in\[209\]
*449 all_in\[20\]
*450 all_in\[210\]
*451 all_in\[211\]
*452 all_in\[212\]
*453 all_in\[213\]
*454 all_in\[214\]
*455 all_in\[215\]
*456 all_in\[216\]
*457 all_in\[217\]
*458 all_in\[218\]
*459 all_in\[219\]
*460 all_in\[21\]
*461 all_in\[220\]
*462 all_in\[221\]
*463 all_in\[222\]
*464 all_in\[223\]
*465 all_in\[224\]
*466 all_in\[225\]
*467 all_in\[226\]
*468 all_in\[227\]
*469 all_in\[228\]
*470 all_in\[229\]
*471 all_in\[22\]
*472 all_in\[230\]
*473 all_in\[231\]
*474 all_in\[232\]
*475 all_in\[233\]
*476 all_in\[234\]
*477 all_in\[235\]
*478 all_in\[236\]
*479 all_in\[237\]
*480 all_in\[238\]
*481 all_in\[239\]
*482 all_in\[23\]
*483 all_in\[240\]
*484 all_in\[241\]
*485 all_in\[242\]
*486 all_in\[243\]
*487 all_in\[244\]
*488 all_in\[245\]
*489 all_in\[246\]
*490 all_in\[247\]
*491 all_in\[248\]
*492 all_in\[249\]
*493 all_in\[24\]
*494 all_in\[250\]
*495 all_in\[251\]
*496 all_in\[252\]
*497 all_in\[253\]
*498 all_in\[254\]
*499 all_in\[255\]
*500 all_in\[256\]
*501 all_in\[257\]
*502 all_in\[258\]
*503 all_in\[259\]
*504 all_in\[25\]
*505 all_in\[260\]
*506 all_in\[261\]
*507 all_in\[262\]
*508 all_in\[263\]
*509 all_in\[264\]
*510 all_in\[265\]
*511 all_in\[266\]
*512 all_in\[267\]
*513 all_in\[268\]
*514 all_in\[269\]
*515 all_in\[26\]
*516 all_in\[270\]
*517 all_in\[271\]
*518 all_in\[272\]
*519 all_in\[273\]
*520 all_in\[274\]
*521 all_in\[275\]
*522 all_in\[276\]
*523 all_in\[277\]
*524 all_in\[278\]
*525 all_in\[279\]
*526 all_in\[27\]
*527 all_in\[280\]
*528 all_in\[281\]
*529 all_in\[282\]
*530 all_in\[283\]
*531 all_in\[284\]
*532 all_in\[285\]
*533 all_in\[286\]
*534 all_in\[287\]
*535 all_in\[28\]
*536 all_in\[29\]
*537 all_in\[2\]
*538 all_in\[30\]
*539 all_in\[31\]
*540 all_in\[32\]
*541 all_in\[33\]
*542 all_in\[34\]
*543 all_in\[35\]
*544 all_in\[36\]
*545 all_in\[37\]
*546 all_in\[38\]
*547 all_in\[39\]
*548 all_in\[3\]
*549 all_in\[40\]
*550 all_in\[41\]
*551 all_in\[42\]
*552 all_in\[43\]
*553 all_in\[44\]
*554 all_in\[45\]
*555 all_in\[46\]
*556 all_in\[47\]
*557 all_in\[48\]
*558 all_in\[49\]
*559 all_in\[4\]
*560 all_in\[50\]
*561 all_in\[51\]
*562 all_in\[52\]
*563 all_in\[53\]
*564 all_in\[54\]
*565 all_in\[55\]
*566 all_in\[56\]
*567 all_in\[57\]
*568 all_in\[58\]
*569 all_in\[59\]
*570 all_in\[5\]
*571 all_in\[60\]
*572 all_in\[61\]
*573 all_in\[62\]
*574 all_in\[63\]
*575 all_in\[64\]
*576 all_in\[65\]
*577 all_in\[66\]
*578 all_in\[67\]
*579 all_in\[68\]
*580 all_in\[69\]
*581 all_in\[6\]
*582 all_in\[70\]
*583 all_in\[71\]
*584 all_in\[72\]
*585 all_in\[73\]
*586 all_in\[74\]
*587 all_in\[75\]
*588 all_in\[76\]
*589 all_in\[77\]
*590 all_in\[78\]
*591 all_in\[79\]
*592 all_in\[7\]
*593 all_in\[80\]
*594 all_in\[81\]
*595 all_in\[82\]
*596 all_in\[83\]
*597 all_in\[84\]
*598 all_in\[85\]
*599 all_in\[86\]
*600 all_in\[87\]
*601 all_in\[88\]
*602 all_in\[89\]
*603 all_in\[8\]
*604 all_in\[90\]
*605 all_in\[91\]
*606 all_in\[92\]
*607 all_in\[93\]
*608 all_in\[94\]
*609 all_in\[95\]
*610 all_in\[96\]
*611 all_in\[97\]
*612 all_in\[98\]
*613 all_in\[99\]
*614 all_in\[9\]
*615 clknet_0_io_in[0]
*616 clknet_1_0__leaf_io_in[0]
*617 clknet_1_1__leaf_io_in[0]
*618 clknet_leaf_0_io_in[0]
*619 clknet_leaf_10_io_in[0]
*620 clknet_leaf_11_io_in[0]
*621 clknet_leaf_12_io_in[0]
*622 clknet_leaf_13_io_in[0]
*623 clknet_leaf_14_io_in[0]
*624 clknet_leaf_15_io_in[0]
*625 clknet_leaf_16_io_in[0]
*626 clknet_leaf_17_io_in[0]
*627 clknet_leaf_18_io_in[0]
*628 clknet_leaf_19_io_in[0]
*629 clknet_leaf_1_io_in[0]
*630 clknet_leaf_2_io_in[0]
*631 clknet_leaf_3_io_in[0]
*632 clknet_leaf_4_io_in[0]
*633 clknet_leaf_5_io_in[0]
*634 clknet_leaf_6_io_in[0]
*635 clknet_leaf_7_io_in[0]
*636 clknet_leaf_8_io_in[0]
*637 clknet_leaf_9_io_in[0]
*638 half_q
*639 idx\[0\]
*640 idx\[1\]
*641 idx\[2\]
*642 idx\[3\]
*643 idx\[4\]
*644 idx\[5\]
*645 idx\[6\]
*646 idx\[7\]
*647 idx\[8\]
*648 ins\[0\]
*649 ins\[1\]
*650 ins\[2\]
*651 ins\[3\]
*652 ins\[4\]
*653 k\[0\]
*654 k\[1\]
*655 k\[2\]
*656 lut_q
*657 n\[0\]
*658 n\[1\]
*659 n\[2\]
*660 n\[3\]
*661 n\[4\]
*662 n\[5\]
*663 n\[6\]
*664 n\[7\]
*665 n\[8\]
*666 net1
*667 net10
*668 net100
*669 net101
*670 net102
*671 net103
*672 net104
*673 net105
*674 net106
*675 net107
*676 net108
*677 net109
*678 net11
*679 net110
*680 net111
*681 net112
*682 net113
*683 net114
*684 net115
*685 net116
*686 net117
*687 net118
*688 net119
*689 net12
*690 net120
*691 net121
*692 net122
*693 net123
*694 net124
*695 net125
*696 net126
*697 net127
*698 net128
*699 net129
*700 net13
*701 net130
*702 net131
*703 net132
*704 net133
*705 net134
*706 net135
*707 net136
*708 net137
*709 net138
*710 net139
*711 net14
*712 net140
*713 net141
*714 net142
*715 net143
*716 net144
*717 net145
*718 net146
*719 net147
*720 net148
*721 net149
*722 net15
*723 net150
*724 net151
*725 net152
*726 net153
*727 net154
*728 net155
*729 net156
*730 net157
*731 net158
*732 net159
*733 net16
*734 net160
*735 net161
*736 net162
*737 net163
*738 net164
*739 net165
*740 net166
*741 net167
*742 net168
*743 net169
*744 net17
*745 net170
*746 net171
*747 net172
*748 net173
*749 net174
*750 net175
*751 net176
*752 net177
*753 net178
*754 net179
*755 net18
*756 net180
*757 net181
*758 net182
*759 net183
*760 net184
*761 net185
*762 net186
*763 net187
*764 net188
*765 net189
*766 net19
*767 net190
*768 net191
*769 net192
*770 net193
*771 net194
*772 net195
*773 net196
*774 net197
*775 net198
*776 net199
*777 net2
*778 net20
*779 net200
*780 net201
*781 net202
*782 net203
*783 net204
*784 net205
*785 net206
*786 net207
*787 net208
*788 net209
*789 net21
*790 net210
*791 net211
*792 net212
*793 net213
*794 net214
*795 net215
*796 net216
*797 net217
*798 net218
*799 net219
*800 net22
*801 net220
*802 net221
*803 net222
*804 net223
*805 net224
*806 net225
*807 net226
*808 net227
*809 net228
*810 net229
*811 net23
*812 net230
*813 net231
*814 net232
*815 net233
*816 net234
*817 net235
*818 net236
*819 net237
*820 net238
*821 net239
*822 net24
*823 net240
*824 net241
*825 net242
*826 net243
*827 net244
*828 net245
*829 net246
*830 net247
*831 net248
*832 net249
*833 net25
*834 net250
*835 net251
*836 net252
*837 net253
*838 net254
*839 net255
*840 net256
*841 net257
*842 net258
*843 net259
*844 net26
*845 net260
*846 net261
*847 net262
*848 net263
*849 net264
*850 net265
*851 net266
*852 net267
*853 net268
*854 net269
*855 net27
*856 net270
*857 net271
*858 net272
*859 net273
*860 net274
*861 net275
*862 net276
*863 net28
*864 net29
*865 net3
*866 net30
*867 net31
*868 net32
*869 net33
*870 net34
*871 net35
*872 net36
*873 net37
*874 net38
*875 net39
*876 net4
*877 net40
*878 net41
*879 net42
*880 net43
*881 net44
*882 net45
*883 net46
*884 net47
*885 net48
*886 net49
*887 net5
*888 net50
*889 net51
*890 net52
*891 net53
*892 net54
*893 net55
*894 net56
*895 net57
*896 net58
*897 net59
*898 net6
*899 net60
*900 net61
*901 net62
*902 net63
*903 net64
*904 net65
*905 net66
*906 net67
*907 net68
*908 net69
*909 net7
*910 net70
*911 net71
*912 net72
*913 net73
*914 net74
*915 net75
*916 net76
*917 net77
*918 net78
*919 net79
*920 net8
*921 net80
*922 net81
*923 net82
*924 net83
*925 net84
*926 net85
*927 net86
*928 net87
*929 net88
*930 net89
*931 net9
*932 net90
*933 net91
*934 net92
*935 net93
*936 net94
*937 net95
*938 net96
*939 net97
*940 net98
*941 net99
*942 rst
*943 seg\[0\]
*944 seg\[1\]
*945 seg\[2\]
*946 ANTENNA_1
*947 ANTENNA_10
*948 ANTENNA_11
*949 ANTENNA_12
*950 ANTENNA_13
*951 ANTENNA_14
*952 ANTENNA_15
*953 ANTENNA_16
*954 ANTENNA_17
*955 ANTENNA_18
*956 ANTENNA_19
*957 ANTENNA_2
*958 ANTENNA_20
*959 ANTENNA_21
*960 ANTENNA_3
*961 ANTENNA_4
*962 ANTENNA_5
*963 ANTENNA_6
*964 ANTENNA_7
*965 ANTENNA_8
*966 ANTENNA_9
*967 FILLER_0_110
*968 FILLER_0_113
*969 FILLER_0_135
*970 FILLER_0_139
*971 FILLER_0_141
*972 FILLER_0_159
*973 FILLER_0_167
*974 FILLER_0_169
*975 FILLER_0_187
*976 FILLER_0_195
*977 FILLER_0_197
*978 FILLER_0_215
*979 FILLER_0_223
*980 FILLER_0_225
*981 FILLER_0_243
*982 FILLER_0_251
*983 FILLER_0_253
*984 FILLER_0_26
*985 FILLER_0_271
*986 FILLER_0_279
*987 FILLER_0_281
*988 FILLER_0_29
*989 FILLER_0_291
*990 FILLER_0_295
*991 FILLER_0_3
*992 FILLER_0_34
*993 FILLER_0_54
*994 FILLER_0_57
*995 FILLER_0_65
*996 FILLER_0_8
*997 FILLER_0_82
*998 FILLER_0_85
*999 FILLER_0_89
*1000 FILLER_0_92
*1001 FILLER_10_103
*1002 FILLER_10_107
*1003 FILLER_10_128
*1004 FILLER_10_138
*1005 FILLER_10_141
*1006 FILLER_10_147
*1007 FILLER_10_156
*1008 FILLER_10_180
*1009 FILLER_10_192
*1010 FILLER_10_197
*1011 FILLER_10_205
*1012 FILLER_10_21
*1013 FILLER_10_218
*1014 FILLER_10_226
*1015 FILLER_10_243
*1016 FILLER_10_251
*1017 FILLER_10_253
*1018 FILLER_10_263
*1019 FILLER_10_27
*1020 FILLER_10_275
*1021 FILLER_10_287
*1022 FILLER_10_29
*1023 FILLER_10_296
*1024 FILLER_10_3
*1025 FILLER_10_47
*1026 FILLER_10_53
*1027 FILLER_10_62
*1028 FILLER_10_82
*1029 FILLER_10_85
*1030 FILLER_11_110
*1031 FILLER_11_113
*1032 FILLER_11_136
*1033 FILLER_11_146
*1034 FILLER_11_166
*1035 FILLER_11_169
*1036 FILLER_11_176
*1037 FILLER_11_18
*1038 FILLER_11_196
*1039 FILLER_11_204
*1040 FILLER_11_222
*1041 FILLER_11_225
*1042 FILLER_11_243
*1043 FILLER_11_263
*1044 FILLER_11_275
*1045 FILLER_11_279
*1046 FILLER_11_281
*1047 FILLER_11_291
*1048 FILLER_11_3
*1049 FILLER_11_43
*1050 FILLER_11_47
*1051 FILLER_11_54
*1052 FILLER_11_57
*1053 FILLER_11_61
*1054 FILLER_11_70
*1055 FILLER_11_9
*1056 FILLER_11_90
*1057 FILLER_12_118
*1058 FILLER_12_138
*1059 FILLER_12_141
*1060 FILLER_12_164
*1061 FILLER_12_168
*1062 FILLER_12_185
*1063 FILLER_12_194
*1064 FILLER_12_197
*1065 FILLER_12_21
*1066 FILLER_12_215
*1067 FILLER_12_244
*1068 FILLER_12_253
*1069 FILLER_12_263
*1070 FILLER_12_27
*1071 FILLER_12_275
*1072 FILLER_12_287
*1073 FILLER_12_29
*1074 FILLER_12_297
*1075 FILLER_12_3
*1076 FILLER_12_33
*1077 FILLER_12_42
*1078 FILLER_12_63
*1079 FILLER_12_70
*1080 FILLER_12_82
*1081 FILLER_12_85
*1082 FILLER_12_89
*1083 FILLER_12_98
*1084 FILLER_13_107
*1085 FILLER_13_111
*1086 FILLER_13_113
*1087 FILLER_13_117
*1088 FILLER_13_12
*1089 FILLER_13_126
*1090 FILLER_13_146
*1091 FILLER_13_16
*1092 FILLER_13_166
*1093 FILLER_13_169
*1094 FILLER_13_179
*1095 FILLER_13_206
*1096 FILLER_13_218
*1097 FILLER_13_225
*1098 FILLER_13_245
*1099 FILLER_13_257
*1100 FILLER_13_269
*1101 FILLER_13_278
*1102 FILLER_13_281
*1103 FILLER_13_291
*1104 FILLER_13_3
*1105 FILLER_13_34
*1106 FILLER_13_54
*1107 FILLER_13_57
*1108 FILLER_13_75
*1109 FILLER_13_95
*1110 FILLER_14_107
*1111 FILLER_14_114
*1112 FILLER_14_134
*1113 FILLER_14_141
*1114 FILLER_14_148
*1115 FILLER_14_160
*1116 FILLER_14_180
*1117 FILLER_14_192
*1118 FILLER_14_197
*1119 FILLER_14_215
*1120 FILLER_14_225
*1121 FILLER_14_245
*1122 FILLER_14_251
*1123 FILLER_14_253
*1124 FILLER_14_26
*1125 FILLER_14_264
*1126 FILLER_14_276
*1127 FILLER_14_288
*1128 FILLER_14_29
*1129 FILLER_14_296
*1130 FILLER_14_3
*1131 FILLER_14_33
*1132 FILLER_14_42
*1133 FILLER_14_62
*1134 FILLER_14_82
*1135 FILLER_14_85
*1136 FILLER_14_9
*1137 FILLER_15_102
*1138 FILLER_15_110
*1139 FILLER_15_113
*1140 FILLER_15_12
*1141 FILLER_15_137
*1142 FILLER_15_145
*1143 FILLER_15_162
*1144 FILLER_15_169
*1145 FILLER_15_192
*1146 FILLER_15_202
*1147 FILLER_15_222
*1148 FILLER_15_225
*1149 FILLER_15_248
*1150 FILLER_15_260
*1151 FILLER_15_272
*1152 FILLER_15_281
*1153 FILLER_15_29
*1154 FILLER_15_291
*1155 FILLER_15_3
*1156 FILLER_15_49
*1157 FILLER_15_55
*1158 FILLER_15_57
*1159 FILLER_15_8
*1160 FILLER_15_80
*1161 FILLER_16_111
*1162 FILLER_16_135
*1163 FILLER_16_139
*1164 FILLER_16_141
*1165 FILLER_16_152
*1166 FILLER_16_158
*1167 FILLER_16_175
*1168 FILLER_16_187
*1169 FILLER_16_195
*1170 FILLER_16_197
*1171 FILLER_16_203
*1172 FILLER_16_220
*1173 FILLER_16_23
*1174 FILLER_16_240
*1175 FILLER_16_250
*1176 FILLER_16_253
*1177 FILLER_16_263
*1178 FILLER_16_27
*1179 FILLER_16_275
*1180 FILLER_16_287
*1181 FILLER_16_29
*1182 FILLER_16_3
*1183 FILLER_16_36
*1184 FILLER_16_60
*1185 FILLER_16_80
*1186 FILLER_16_85
*1187 FILLER_16_89
*1188 FILLER_17_101
*1189 FILLER_17_110
*1190 FILLER_17_113
*1191 FILLER_17_118
*1192 FILLER_17_13
*1193 FILLER_17_138
*1194 FILLER_17_145
*1195 FILLER_17_149
*1196 FILLER_17_166
*1197 FILLER_17_169
*1198 FILLER_17_179
*1199 FILLER_17_199
*1200 FILLER_17_219
*1201 FILLER_17_223
*1202 FILLER_17_225
*1203 FILLER_17_243
*1204 FILLER_17_255
*1205 FILLER_17_267
*1206 FILLER_17_279
*1207 FILLER_17_281
*1208 FILLER_17_291
*1209 FILLER_17_3
*1210 FILLER_17_38
*1211 FILLER_17_51
*1212 FILLER_17_55
*1213 FILLER_17_57
*1214 FILLER_17_75
*1215 FILLER_17_83
*1216 FILLER_18_100
*1217 FILLER_18_121
*1218 FILLER_18_129
*1219 FILLER_18_138
*1220 FILLER_18_141
*1221 FILLER_18_146
*1222 FILLER_18_166
*1223 FILLER_18_178
*1224 FILLER_18_182
*1225 FILLER_18_191
*1226 FILLER_18_195
*1227 FILLER_18_197
*1228 FILLER_18_220
*1229 FILLER_18_226
*1230 FILLER_18_243
*1231 FILLER_18_251
*1232 FILLER_18_253
*1233 FILLER_18_26
*1234 FILLER_18_263
*1235 FILLER_18_275
*1236 FILLER_18_287
*1237 FILLER_18_29
*1238 FILLER_18_3
*1239 FILLER_18_52
*1240 FILLER_18_72
*1241 FILLER_18_82
*1242 FILLER_18_85
*1243 FILLER_18_9
*1244 FILLER_18_96
*1245 FILLER_19_103
*1246 FILLER_19_111
*1247 FILLER_19_113
*1248 FILLER_19_123
*1249 FILLER_19_147
*1250 FILLER_19_159
*1251 FILLER_19_166
*1252 FILLER_19_169
*1253 FILLER_19_179
*1254 FILLER_19_201
*1255 FILLER_19_221
*1256 FILLER_19_225
*1257 FILLER_19_229
*1258 FILLER_19_250
*1259 FILLER_19_262
*1260 FILLER_19_27
*1261 FILLER_19_274
*1262 FILLER_19_281
*1263 FILLER_19_291
*1264 FILLER_19_3
*1265 FILLER_19_47
*1266 FILLER_19_54
*1267 FILLER_19_57
*1268 FILLER_19_61
*1269 FILLER_19_78
*1270 FILLER_19_86
*1271 FILLER_1_110
*1272 FILLER_1_113
*1273 FILLER_1_131
*1274 FILLER_1_14
*1275 FILLER_1_155
*1276 FILLER_1_165
*1277 FILLER_1_169
*1278 FILLER_1_187
*1279 FILLER_1_207
*1280 FILLER_1_219
*1281 FILLER_1_223
*1282 FILLER_1_225
*1283 FILLER_1_243
*1284 FILLER_1_263
*1285 FILLER_1_275
*1286 FILLER_1_279
*1287 FILLER_1_281
*1288 FILLER_1_291
*1289 FILLER_1_3
*1290 FILLER_1_34
*1291 FILLER_1_54
*1292 FILLER_1_57
*1293 FILLER_1_68
*1294 FILLER_1_72
*1295 FILLER_1_90
*1296 FILLER_20_116
*1297 FILLER_20_138
*1298 FILLER_20_141
*1299 FILLER_20_149
*1300 FILLER_20_174
*1301 FILLER_20_194
*1302 FILLER_20_197
*1303 FILLER_20_21
*1304 FILLER_20_215
*1305 FILLER_20_243
*1306 FILLER_20_251
*1307 FILLER_20_253
*1308 FILLER_20_263
*1309 FILLER_20_27
*1310 FILLER_20_275
*1311 FILLER_20_287
*1312 FILLER_20_29
*1313 FILLER_20_296
*1314 FILLER_20_3
*1315 FILLER_20_33
*1316 FILLER_20_42
*1317 FILLER_20_62
*1318 FILLER_20_82
*1319 FILLER_20_85
*1320 FILLER_20_96
*1321 FILLER_21_110
*1322 FILLER_21_113
*1323 FILLER_21_12
*1324 FILLER_21_120
*1325 FILLER_21_140
*1326 FILLER_21_148
*1327 FILLER_21_166
*1328 FILLER_21_169
*1329 FILLER_21_179
*1330 FILLER_21_187
*1331 FILLER_21_209
*1332 FILLER_21_221
*1333 FILLER_21_225
*1334 FILLER_21_243
*1335 FILLER_21_263
*1336 FILLER_21_275
*1337 FILLER_21_279
*1338 FILLER_21_281
*1339 FILLER_21_291
*1340 FILLER_21_295
*1341 FILLER_21_3
*1342 FILLER_21_32
*1343 FILLER_21_54
*1344 FILLER_21_57
*1345 FILLER_21_80
*1346 FILLER_21_86
*1347 FILLER_21_96
*1348 FILLER_22_103
*1349 FILLER_22_115
*1350 FILLER_22_135
*1351 FILLER_22_139
*1352 FILLER_22_141
*1353 FILLER_22_157
*1354 FILLER_22_177
*1355 FILLER_22_190
*1356 FILLER_22_197
*1357 FILLER_22_207
*1358 FILLER_22_21
*1359 FILLER_22_220
*1360 FILLER_22_245
*1361 FILLER_22_251
*1362 FILLER_22_253
*1363 FILLER_22_263
*1364 FILLER_22_27
*1365 FILLER_22_273
*1366 FILLER_22_277
*1367 FILLER_22_287
*1368 FILLER_22_29
*1369 FILLER_22_297
*1370 FILLER_22_3
*1371 FILLER_22_48
*1372 FILLER_22_68
*1373 FILLER_22_80
*1374 FILLER_22_85
*1375 FILLER_22_93
*1376 FILLER_23_10
*1377 FILLER_23_110
*1378 FILLER_23_113
*1379 FILLER_23_118
*1380 FILLER_23_138
*1381 FILLER_23_166
*1382 FILLER_23_169
*1383 FILLER_23_173
*1384 FILLER_23_190
*1385 FILLER_23_210
*1386 FILLER_23_222
*1387 FILLER_23_225
*1388 FILLER_23_243
*1389 FILLER_23_255
*1390 FILLER_23_267
*1391 FILLER_23_277
*1392 FILLER_23_281
*1393 FILLER_23_291
*1394 FILLER_23_3
*1395 FILLER_23_30
*1396 FILLER_23_54
*1397 FILLER_23_57
*1398 FILLER_23_66
*1399 FILLER_23_78
*1400 FILLER_23_90
*1401 FILLER_24_107
*1402 FILLER_24_111
*1403 FILLER_24_118
*1404 FILLER_24_138
*1405 FILLER_24_141
*1406 FILLER_24_151
*1407 FILLER_24_159
*1408 FILLER_24_182
*1409 FILLER_24_194
*1410 FILLER_24_197
*1411 FILLER_24_207
*1412 FILLER_24_219
*1413 FILLER_24_223
*1414 FILLER_24_24
*1415 FILLER_24_245
*1416 FILLER_24_251
*1417 FILLER_24_269
*1418 FILLER_24_273
*1419 FILLER_24_283
*1420 FILLER_24_29
*1421 FILLER_24_295
*1422 FILLER_24_3
*1423 FILLER_24_33
*1424 FILLER_24_50
*1425 FILLER_24_7
*1426 FILLER_24_70
*1427 FILLER_24_82
*1428 FILLER_24_85
*1429 FILLER_25_100
*1430 FILLER_25_110
*1431 FILLER_25_113
*1432 FILLER_25_142
*1433 FILLER_25_154
*1434 FILLER_25_166
*1435 FILLER_25_169
*1436 FILLER_25_177
*1437 FILLER_25_194
*1438 FILLER_25_21
*1439 FILLER_25_214
*1440 FILLER_25_222
*1441 FILLER_25_225
*1442 FILLER_25_243
*1443 FILLER_25_253
*1444 FILLER_25_257
*1445 FILLER_25_267
*1446 FILLER_25_277
*1447 FILLER_25_281
*1448 FILLER_25_291
*1449 FILLER_25_295
*1450 FILLER_25_3
*1451 FILLER_25_46
*1452 FILLER_25_54
*1453 FILLER_25_57
*1454 FILLER_25_75
*1455 FILLER_25_83
*1456 FILLER_26_103
*1457 FILLER_26_115
*1458 FILLER_26_121
*1459 FILLER_26_138
*1460 FILLER_26_141
*1461 FILLER_26_152
*1462 FILLER_26_164
*1463 FILLER_26_170
*1464 FILLER_26_187
*1465 FILLER_26_195
*1466 FILLER_26_197
*1467 FILLER_26_21
*1468 FILLER_26_215
*1469 FILLER_26_224
*1470 FILLER_26_244
*1471 FILLER_26_253
*1472 FILLER_26_263
*1473 FILLER_26_27
*1474 FILLER_26_273
*1475 FILLER_26_277
*1476 FILLER_26_287
*1477 FILLER_26_29
*1478 FILLER_26_3
*1479 FILLER_26_37
*1480 FILLER_26_57
*1481 FILLER_26_82
*1482 FILLER_26_85
*1483 FILLER_27_100
*1484 FILLER_27_110
*1485 FILLER_27_113
*1486 FILLER_27_120
*1487 FILLER_27_144
*1488 FILLER_27_16
*1489 FILLER_27_164
*1490 FILLER_27_169
*1491 FILLER_27_179
*1492 FILLER_27_187
*1493 FILLER_27_209
*1494 FILLER_27_221
*1495 FILLER_27_225
*1496 FILLER_27_235
*1497 FILLER_27_239
*1498 FILLER_27_248
*1499 FILLER_27_258
*1500 FILLER_27_262
*1501 FILLER_27_272
*1502 FILLER_27_281
*1503 FILLER_27_291
*1504 FILLER_27_295
*1505 FILLER_27_3
*1506 FILLER_27_41
*1507 FILLER_27_54
*1508 FILLER_27_57
*1509 FILLER_27_66
*1510 FILLER_27_7
*1511 FILLER_27_86
*1512 FILLER_27_90
*1513 FILLER_28_114
*1514 FILLER_28_138
*1515 FILLER_28_141
*1516 FILLER_28_157
*1517 FILLER_28_177
*1518 FILLER_28_189
*1519 FILLER_28_195
*1520 FILLER_28_197
*1521 FILLER_28_215
*1522 FILLER_28_243
*1523 FILLER_28_251
*1524 FILLER_28_26
*1525 FILLER_28_261
*1526 FILLER_28_265
*1527 FILLER_28_275
*1528 FILLER_28_287
*1529 FILLER_28_29
*1530 FILLER_28_291
*1531 FILLER_28_3
*1532 FILLER_28_37
*1533 FILLER_28_49
*1534 FILLER_28_69
*1535 FILLER_28_73
*1536 FILLER_28_82
*1537 FILLER_28_85
*1538 FILLER_28_9
*1539 FILLER_28_93
*1540 FILLER_29_105
*1541 FILLER_29_111
*1542 FILLER_29_113
*1543 FILLER_29_125
*1544 FILLER_29_15
*1545 FILLER_29_150
*1546 FILLER_29_166
*1547 FILLER_29_169
*1548 FILLER_29_176
*1549 FILLER_29_200
*1550 FILLER_29_220
*1551 FILLER_29_225
*1552 FILLER_29_244
*1553 FILLER_29_256
*1554 FILLER_29_268
*1555 FILLER_29_281
*1556 FILLER_29_293
*1557 FILLER_29_3
*1558 FILLER_29_35
*1559 FILLER_29_42
*1560 FILLER_29_54
*1561 FILLER_29_57
*1562 FILLER_29_75
*1563 FILLER_29_83
*1564 FILLER_29_93
*1565 FILLER_2_101
*1566 FILLER_2_123
*1567 FILLER_2_135
*1568 FILLER_2_139
*1569 FILLER_2_141
*1570 FILLER_2_159
*1571 FILLER_2_181
*1572 FILLER_2_193
*1573 FILLER_2_197
*1574 FILLER_2_215
*1575 FILLER_2_235
*1576 FILLER_2_247
*1577 FILLER_2_251
*1578 FILLER_2_253
*1579 FILLER_2_26
*1580 FILLER_2_263
*1581 FILLER_2_275
*1582 FILLER_2_287
*1583 FILLER_2_29
*1584 FILLER_2_297
*1585 FILLER_2_3
*1586 FILLER_2_38
*1587 FILLER_2_42
*1588 FILLER_2_60
*1589 FILLER_2_8
*1590 FILLER_2_80
*1591 FILLER_2_85
*1592 FILLER_2_95
*1593 FILLER_30_100
*1594 FILLER_30_112
*1595 FILLER_30_124
*1596 FILLER_30_138
*1597 FILLER_30_14
*1598 FILLER_30_141
*1599 FILLER_30_151
*1600 FILLER_30_155
*1601 FILLER_30_177
*1602 FILLER_30_189
*1603 FILLER_30_195
*1604 FILLER_30_197
*1605 FILLER_30_217
*1606 FILLER_30_241
*1607 FILLER_30_249
*1608 FILLER_30_253
*1609 FILLER_30_26
*1610 FILLER_30_263
*1611 FILLER_30_275
*1612 FILLER_30_287
*1613 FILLER_30_29
*1614 FILLER_30_3
*1615 FILLER_30_33
*1616 FILLER_30_50
*1617 FILLER_30_58
*1618 FILLER_30_75
*1619 FILLER_30_82
*1620 FILLER_30_85
*1621 FILLER_31_104
*1622 FILLER_31_113
*1623 FILLER_31_121
*1624 FILLER_31_134
*1625 FILLER_31_14
*1626 FILLER_31_146
*1627 FILLER_31_166
*1628 FILLER_31_169
*1629 FILLER_31_187
*1630 FILLER_31_216
*1631 FILLER_31_225
*1632 FILLER_31_248
*1633 FILLER_31_260
*1634 FILLER_31_272
*1635 FILLER_31_281
*1636 FILLER_31_293
*1637 FILLER_31_3
*1638 FILLER_31_34
*1639 FILLER_31_54
*1640 FILLER_31_57
*1641 FILLER_31_84
*1642 FILLER_32_103
*1643 FILLER_32_116
*1644 FILLER_32_120
*1645 FILLER_32_129
*1646 FILLER_32_138
*1647 FILLER_32_141
*1648 FILLER_32_151
*1649 FILLER_32_157
*1650 FILLER_32_174
*1651 FILLER_32_186
*1652 FILLER_32_194
*1653 FILLER_32_197
*1654 FILLER_32_215
*1655 FILLER_32_226
*1656 FILLER_32_246
*1657 FILLER_32_253
*1658 FILLER_32_26
*1659 FILLER_32_263
*1660 FILLER_32_267
*1661 FILLER_32_279
*1662 FILLER_32_29
*1663 FILLER_32_291
*1664 FILLER_32_3
*1665 FILLER_32_52
*1666 FILLER_32_60
*1667 FILLER_32_82
*1668 FILLER_32_85
*1669 FILLER_32_9
*1670 FILLER_33_102
*1671 FILLER_33_110
*1672 FILLER_33_113
*1673 FILLER_33_132
*1674 FILLER_33_145
*1675 FILLER_33_157
*1676 FILLER_33_164
*1677 FILLER_33_169
*1678 FILLER_33_187
*1679 FILLER_33_199
*1680 FILLER_33_211
*1681 FILLER_33_22
*1682 FILLER_33_221
*1683 FILLER_33_225
*1684 FILLER_33_244
*1685 FILLER_33_256
*1686 FILLER_33_268
*1687 FILLER_33_281
*1688 FILLER_33_293
*1689 FILLER_33_3
*1690 FILLER_33_34
*1691 FILLER_33_54
*1692 FILLER_33_57
*1693 FILLER_33_76
*1694 FILLER_33_84
*1695 FILLER_34_116
*1696 FILLER_34_136
*1697 FILLER_34_141
*1698 FILLER_34_151
*1699 FILLER_34_163
*1700 FILLER_34_167
*1701 FILLER_34_189
*1702 FILLER_34_195
*1703 FILLER_34_197
*1704 FILLER_34_205
*1705 FILLER_34_215
*1706 FILLER_34_219
*1707 FILLER_34_22
*1708 FILLER_34_240
*1709 FILLER_34_250
*1710 FILLER_34_253
*1711 FILLER_34_261
*1712 FILLER_34_271
*1713 FILLER_34_283
*1714 FILLER_34_29
*1715 FILLER_34_295
*1716 FILLER_34_3
*1717 FILLER_34_47
*1718 FILLER_34_69
*1719 FILLER_34_73
*1720 FILLER_34_82
*1721 FILLER_34_85
*1722 FILLER_34_96
*1723 FILLER_35_110
*1724 FILLER_35_113
*1725 FILLER_35_118
*1726 FILLER_35_138
*1727 FILLER_35_150
*1728 FILLER_35_166
*1729 FILLER_35_169
*1730 FILLER_35_187
*1731 FILLER_35_195
*1732 FILLER_35_20
*1733 FILLER_35_213
*1734 FILLER_35_222
*1735 FILLER_35_225
*1736 FILLER_35_248
*1737 FILLER_35_260
*1738 FILLER_35_27
*1739 FILLER_35_272
*1740 FILLER_35_281
*1741 FILLER_35_293
*1742 FILLER_35_3
*1743 FILLER_35_47
*1744 FILLER_35_54
*1745 FILLER_35_57
*1746 FILLER_35_79
*1747 FILLER_35_99
*1748 FILLER_36_121
*1749 FILLER_36_133
*1750 FILLER_36_139
*1751 FILLER_36_141
*1752 FILLER_36_151
*1753 FILLER_36_167
*1754 FILLER_36_175
*1755 FILLER_36_192
*1756 FILLER_36_197
*1757 FILLER_36_20
*1758 FILLER_36_214
*1759 FILLER_36_242
*1760 FILLER_36_250
*1761 FILLER_36_253
*1762 FILLER_36_271
*1763 FILLER_36_283
*1764 FILLER_36_29
*1765 FILLER_36_295
*1766 FILLER_36_3
*1767 FILLER_36_51
*1768 FILLER_36_58
*1769 FILLER_36_70
*1770 FILLER_36_82
*1771 FILLER_36_85
*1772 FILLER_36_97
*1773 FILLER_37_105
*1774 FILLER_37_111
*1775 FILLER_37_113
*1776 FILLER_37_122
*1777 FILLER_37_147
*1778 FILLER_37_155
*1779 FILLER_37_166
*1780 FILLER_37_169
*1781 FILLER_37_187
*1782 FILLER_37_196
*1783 FILLER_37_216
*1784 FILLER_37_225
*1785 FILLER_37_245
*1786 FILLER_37_265
*1787 FILLER_37_277
*1788 FILLER_37_28
*1789 FILLER_37_281
*1790 FILLER_37_293
*1791 FILLER_37_3
*1792 FILLER_37_53
*1793 FILLER_37_57
*1794 FILLER_37_75
*1795 FILLER_37_8
*1796 FILLER_37_85
*1797 FILLER_38_108
*1798 FILLER_38_118
*1799 FILLER_38_138