*SPEF "ieee 1481-1999"
*DESIGN "scanchain"
*DATE "11:11:11 Fri 11 11, 1111"
*VENDOR "OpenRCX"
*PROGRAM "Parallel Extraction"
*VERSION "1.0"
*DESIGN_FLOW "NAME_SCOPE LOCAL" "PIN_CAP NONE"
*DIVIDER /
*DELIMITER :
*BUS_DELIMITER []
*T_UNIT 1 NS
*C_UNIT 1 PF
*R_UNIT 1 OHM
*L_UNIT 1 HENRY

*NAME_MAP
*1 clk_in
*2 clk_out
*3 data_in
*4 data_out
*5 latch_enable_in
*6 latch_enable_out
*7 module_data_in[0]
*8 module_data_in[1]
*9 module_data_in[2]
*10 module_data_in[3]
*11 module_data_in[4]
*12 module_data_in[5]
*13 module_data_in[6]
*14 module_data_in[7]
*15 module_data_out[0]
*16 module_data_out[1]
*17 module_data_out[2]
*18 module_data_out[3]
*19 module_data_out[4]
*20 module_data_out[5]
*21 module_data_out[6]
*22 module_data_out[7]
*23 scan_select_in
*24 scan_select_out
*27 clk
*28 data_out_i
*29 net1
*30 net10
*31 net11
*32 net12
*33 net2
*34 net3
*35 net4
*36 net5
*37 net6
*38 net7
*39 net8
*40 net9
*41 scan_data_in\[1\]
*42 scan_data_in\[2\]
*43 scan_data_in\[3\]
*44 scan_data_in\[4\]
*45 scan_data_in\[5\]
*46 scan_data_in\[6\]
*47 scan_data_in\[7\]
*48 scan_data_out\[7\]
*49 FILLER_0_15
*50 FILLER_0_27
*51 FILLER_0_29
*52 FILLER_0_3
*53 FILLER_0_37
*54 FILLER_10_21
*55 FILLER_10_27
*56 FILLER_10_29
*57 FILLER_10_3
*58 FILLER_10_37
*59 FILLER_10_9
*60 FILLER_11_11
*61 FILLER_11_23
*62 FILLER_11_3
*63 FILLER_11_36
*64 FILLER_12_11
*65 FILLER_12_26
*66 FILLER_12_29
*67 FILLER_12_3
*68 FILLER_12_37
*69 FILLER_13_20
*70 FILLER_13_3
*71 FILLER_13_36
*72 FILLER_13_7
*73 FILLER_14_11
*74 FILLER_14_26
*75 FILLER_14_29
*76 FILLER_14_3
*77 FILLER_14_37
*78 FILLER_15_11
*79 FILLER_15_3
*80 FILLER_15_33
*81 FILLER_15_37
*82 FILLER_16_11
*83 FILLER_16_26
*84 FILLER_16_29
*85 FILLER_16_3
*86 FILLER_16_37
*87 FILLER_17_15
*88 FILLER_17_3
*89 FILLER_17_36
*90 FILLER_17_9
*91 FILLER_18_11
*92 FILLER_18_26
*93 FILLER_18_29
*94 FILLER_18_3
*95 FILLER_18_36
*96 FILLER_19_3
*97 FILLER_19_36
*98 FILLER_1_15
*99 FILLER_1_27
*100 FILLER_1_3
*101 FILLER_1_35
*102 FILLER_20_26
*103 FILLER_20_29
*104 FILLER_20_3
*105 FILLER_20_36
*106 FILLER_21_11
*107 FILLER_21_3
*108 FILLER_21_36
*109 FILLER_22_26
*110 FILLER_22_29
*111 FILLER_22_3
*112 FILLER_22_37
*113 FILLER_23_3
*114 FILLER_23_36
*115 FILLER_24_26
*116 FILLER_24_29
*117 FILLER_24_3
*118 FILLER_24_36
*119 FILLER_25_11
*120 FILLER_25_3
*121 FILLER_25_36
*122 FILLER_26_15
*123 FILLER_26_27
*124 FILLER_26_29
*125 FILLER_26_3
*126 FILLER_26_37
*127 FILLER_27_15
*128 FILLER_27_27
*129 FILLER_27_3
*130 FILLER_27_36
*131 FILLER_28_11
*132 FILLER_28_23
*133 FILLER_28_27
*134 FILLER_28_29
*135 FILLER_28_3
*136 FILLER_28_37
*137 FILLER_29_13
*138 FILLER_29_25
*139 FILLER_29_3
*140 FILLER_29_37
*141 FILLER_2_15
*142 FILLER_2_27
*143 FILLER_2_29
*144 FILLER_2_3
*145 FILLER_2_37
*146 FILLER_30_15
*147 FILLER_30_27
*148 FILLER_30_29
*149 FILLER_30_3
*150 FILLER_30_36
*151 FILLER_31_15
*152 FILLER_31_27
*153 FILLER_31_3
*154 FILLER_31_35
*155 FILLER_32_15
*156 FILLER_32_27
*157 FILLER_32_29
*158 FILLER_32_3
*159 FILLER_32_36
*160 FILLER_33_15
*161 FILLER_33_27
*162 FILLER_33_3
*163 FILLER_33_35
*164 FILLER_34_15
*165 FILLER_34_27
*166 FILLER_34_29
*167 FILLER_34_3
*168 FILLER_34_37
*169 FILLER_35_15
*170 FILLER_35_27
*171 FILLER_35_3
*172 FILLER_35_36
*173 FILLER_36_15
*174 FILLER_36_27
*175 FILLER_36_29
*176 FILLER_36_3
*177 FILLER_36_37
*178 FILLER_37_15
*179 FILLER_37_27
*180 FILLER_37_3
*181 FILLER_37_35
*182 FILLER_38_15
*183 FILLER_38_27
*184 FILLER_38_29
*185 FILLER_38_3
*186 FILLER_38_36
*187 FILLER_39_15
*188 FILLER_39_27
*189 FILLER_39_29
*190 FILLER_39_3
*191 FILLER_39_36
*192 FILLER_3_15
*193 FILLER_3_27
*194 FILLER_3_3
*195 FILLER_3_35
*196 FILLER_4_15
*197 FILLER_4_27
*198 FILLER_4_29
*199 FILLER_4_3
*200 FILLER_4_37
*201 FILLER_5_15
*202 FILLER_5_27
*203 FILLER_5_3
*204 FILLER_5_35
*205 FILLER_6_20
*206 FILLER_6_29
*207 FILLER_6_3
*208 FILLER_6_37
*209 FILLER_6_8
*210 FILLER_7_15
*211 FILLER_7_27
*212 FILLER_7_3
*213 FILLER_7_35
*214 FILLER_8_15
*215 FILLER_8_27
*216 FILLER_8_29
*217 FILLER_8_3
*218 FILLER_8_37
*219 FILLER_9_15
*220 FILLER_9_23
*221 FILLER_9_3
*222 FILLER_9_36
*223 PHY_0
*224 PHY_1
*225 PHY_10
*226 PHY_11
*227 PHY_12
*228 PHY_13
*229 PHY_14
*230 PHY_15
*231 PHY_16
*232 PHY_17
*233 PHY_18
*234 PHY_19
*235 PHY_2
*236 PHY_20
*237 PHY_21
*238 PHY_22
*239 PHY_23
*240 PHY_24
*241 PHY_25
*242 PHY_26
*243 PHY_27
*244 PHY_28
*245 PHY_29
*246 PHY_3
*247 PHY_30
*248 PHY_31
*249 PHY_32
*250 PHY_33
*251 PHY_34
*252 PHY_35
*253 PHY_36
*254 PHY_37
*255 PHY_38
*256 PHY_39
*257 PHY_4
*258 PHY_40
*259 PHY_41
*260 PHY_42
*261 PHY_43
*262 PHY_44
*263 PHY_45
*264 PHY_46
*265 PHY_47
*266 PHY_48
*267 PHY_49
*268 PHY_5
*269 PHY_50
*270 PHY_51
*271 PHY_52
*272 PHY_53
*273 PHY_54
*274 PHY_55
*275 PHY_56
*276 PHY_57
*277 PHY_58
*278 PHY_59
*279 PHY_6
*280 PHY_60
*281 PHY_61
*282 PHY_62
*283 PHY_63
*284 PHY_64
*285 PHY_65
*286 PHY_66
*287 PHY_67
*288 PHY_68
*289 PHY_69
*290 PHY_7
*291 PHY_70
*292 PHY_71
*293 PHY_72
*294 PHY_73
*295 PHY_74
*296 PHY_75
*297 PHY_76
*298 PHY_77
*299 PHY_78
*300 PHY_79
*301 PHY_8
*302 PHY_9
*303 TAP_100
*304 TAP_80
*305 TAP_81
*306 TAP_82
*307 TAP_83
*308 TAP_84
*309 TAP_85
*310 TAP_86
*311 TAP_87
*312 TAP_88
*313 TAP_89
*314 TAP_90
*315 TAP_91
*316 TAP_92
*317 TAP_93
*318 TAP_94
*319 TAP_95
*320 TAP_96
*321 TAP_97
*322 TAP_98
*323 TAP_99
*324 input1
*325 input10
*326 input11
*327 input2
*328 input3
*329 input4
*330 input5
*331 input6
*332 input7
*333 input8
*334 input9
*335 input_buf_clk
*336 latch\[0\]
*337 latch\[1\]
*338 latch\[2\]
*339 latch\[3\]
*340 latch\[4\]
*341 latch\[5\]
*342 latch\[6\]
*343 latch\[7\]
*344 out_flop
*345 out_flop_12
*346 output_buffers\[0\]
*347 output_buffers\[1\]
*348 output_buffers\[2\]
*349 output_buffers\[3\]
*350 scan_flop\[0\]
*351 scan_flop\[1\]
*352 scan_flop\[2\]
*353 scan_flop\[3\]
*354 scan_flop\[4\]
*355 scan_flop\[5\]
*356 scan_flop\[6\]
*357 scan_flop\[7\]

*PORTS
clk_in I
clk_out O
data_in I
data_out O
latch_enable_in I
latch_enable_out O
module_data_in[0] O
module_data_in[1] O
module_data_in[2] O
module_data_in[3] O
module_data_in[4] O
module_data_in[5] O
module_data_in[6] O
module_data_in[7] O
module_data_out[0] I
module_data_out[1] I
module_data_out[2] I
module_data_out[3] I
module_data_out[4] I
module_data_out[5] I
module_data_out[6] I
module_data_out[7] I
scan_select_in I
scan_select_out O

*D_NET *1 0.00353008
*CONN
*P clk_in I
*I *335:A I *D sky130_fd_sc_hd__clkbuf_2
*CAP
1 clk_in 0.00174745
2 *335:A 0.00174745
3 *335:A *324:A 3.51773e-05
*RES
1 clk_in *335:A 42.6254 
*END

*D_NET *2 0.00347322
*CONN
*P clk_out O
*I *349:X O *D sky130_fd_sc_hd__buf_4
*CAP
1 clk_out 0.00173661
2 *349:X 0.00173661
3 clk_out data_out 0
*RES
1 *349:X clk_out 46.068 
*END

*D_NET *3 0.000734653
*CONN
*P data_in I
*I *324:A I *D sky130_fd_sc_hd__clkbuf_1
*CAP
1 data_in 0.000349738
2 *324:A 0.000349738
3 *335:A *324:A 3.51773e-05
*RES
1 data_in *324:A 18.8741 
*END

*D_NET *4 0.00198629
*CONN
*P data_out O
*I *348:X O *D sky130_fd_sc_hd__buf_4
*CAP
1 data_out 0.000993144
2 *348:X 0.000993144
3 clk_out data_out 0
*RES
1 *348:X data_out 28.7683 
*END

*D_NET *5 0.000861268
*CONN
*P latch_enable_in I
*I *327:A I *D sky130_fd_sc_hd__clkbuf_2
*CAP
1 latch_enable_in 0.000380227
2 *327:A 0.000380227
3 *327:A *33:11 7.20217e-06
4 *327:A *46:26 9.36119e-05
*RES
1 latch_enable_in *327:A 22.0839 
*END

*D_NET *6 0.00125545
*CONN
*P latch_enable_out O
*I *346:X O *D sky130_fd_sc_hd__buf_4
*CAP
1 latch_enable_out 0.000627723
2 *346:X 0.000627723
3 latch_enable_out *357:D 0
4 latch_enable_out *27:84 0
*RES
1 *346:X latch_enable_out 20.5361 
*END

*D_NET *7 0.00327898
*CONN
*P module_data_in[0] O
*I *336:Q O *D sky130_fd_sc_hd__dlxtp_1
*CAP
1 module_data_in[0] 0.00161591
2 *336:Q 0.00161591
3 module_data_in[0] module_data_in[1] 0
4 module_data_in[0] *336:D 4.71586e-05
*RES
1 *336:Q module_data_in[0] 43.0144 
*END

*D_NET *8 0.00512106
*CONN
*P module_data_in[1] O
*I *337:Q O *D sky130_fd_sc_hd__dlxtp_1
*CAP
1 module_data_in[1] 0.00249614
2 *337:Q 0.00249614
3 module_data_in[1] module_data_in[2] 0
4 module_data_in[1] module_data_in[4] 0
5 module_data_in[1] *336:D 0
6 module_data_in[1] *341:D 3.08734e-05
7 module_data_in[1] *341:GATE 5.14129e-05
8 module_data_in[1] *33:83 4.64895e-05
9 module_data_in[0] module_data_in[1] 0
*RES
1 *337:Q module_data_in[1] 49.9741 
*END

*D_NET *9 0.00391488
*CONN
*P module_data_in[2] O
*I *338:Q O *D sky130_fd_sc_hd__dlxtp_1
*CAP
1 module_data_in[2] 0.00154205
2 *338:Q 0.00154205
3 module_data_in[2] module_data_in[3] 0.000699054
4 module_data_in[2] *44:27 0.000131719
5 module_data_in[1] module_data_in[2] 0
*RES
1 *338:Q module_data_in[2] 43.8148 
*END

*D_NET *10 0.0020785
*CONN
*P module_data_in[3] O
*I *339:Q O *D sky130_fd_sc_hd__dlxtp_1
*CAP
1 module_data_in[3] 0.0006282
2 *339:Q 0.0006282
3 module_data_in[3] *336:D 0
4 module_data_in[3] *44:27 0.000123049
5 module_data_in[2] module_data_in[3] 0.000699054
*RES
1 *339:Q module_data_in[3] 29.5291 
*END

*D_NET *11 0.00280841
*CONN
*P module_data_in[4] O
*I *340:Q O *D sky130_fd_sc_hd__dlxtp_1
*CAP
1 module_data_in[4] 0.0014042
2 *340:Q 0.0014042
3 module_data_in[1] module_data_in[4] 0
*RES
1 *340:Q module_data_in[4] 29.1637 
*END

*D_NET *12 0.000802941
*CONN
*P module_data_in[5] O
*I *341:Q O *D sky130_fd_sc_hd__dlxtp_1
*CAP
1 module_data_in[5] 0.000394798
2 *341:Q 0.000394798
3 module_data_in[5] *336:D 9.14771e-06
4 module_data_in[5] *44:27 4.19624e-06
*RES
1 *341:Q module_data_in[5] 20.0132 
*END

*D_NET *13 0.00201291
*CONN
*P module_data_in[6] O
*I *342:Q O *D sky130_fd_sc_hd__dlxtp_1
*CAP
1 module_data_in[6] 0.000989549
2 *342:Q 0.000989549
3 module_data_in[6] *350:SCD 3.38089e-05
*RES
1 *342:Q module_data_in[6] 20.3774 
*END

*D_NET *14 0.00166929
*CONN
*P module_data_in[7] O
*I *343:Q O *D sky130_fd_sc_hd__dlxtp_1
*CAP
1 module_data_in[7] 0.000831506
2 *343:Q 0.000831506
3 module_data_in[7] *350:SCD 6.27272e-06
*RES
1 *343:Q module_data_in[7] 18.9156 
*END

*D_NET *15 0.00121752
*CONN
*P module_data_out[0] I
*I *328:A I *D sky130_fd_sc_hd__clkbuf_1
*CAP
1 module_data_out[0] 0.000445607
2 *328:A 0.000445607
3 *328:A *36:21 0.000326302
*RES
1 module_data_out[0] *328:A 21.4609 
*END

*D_NET *16 0.00132131
*CONN
*P module_data_out[1] I
*I *329:A I *D sky130_fd_sc_hd__clkbuf_1
*CAP
1 module_data_out[1] 0.000643729
2 *329:A 0.000643729
3 *329:A *330:A 0
4 *329:A *36:21 1.19834e-05
5 *329:A *46:19 2.18722e-05
*RES
1 module_data_out[1] *329:A 18.9027 
*END

*D_NET *17 0.00102197
*CONN
*P module_data_out[2] I
*I *330:A I *D sky130_fd_sc_hd__clkbuf_1
*CAP
1 module_data_out[2] 0.000414574
2 *330:A 0.000414574
3 *330:A *30:10 0
4 *330:A *36:21 0.000108282
5 *330:A *40:11 8.45364e-05
6 *329:A *330:A 0
*RES
1 module_data_out[2] *330:A 21.1924 
*END

*D_NET *18 0.00119047
*CONN
*P module_data_out[3] I
*I *331:A I *D sky130_fd_sc_hd__clkbuf_1
*CAP
1 module_data_out[3] 0.000529637
2 *331:A 0.000529637
3 *331:A *39:9 8.04638e-05
4 *331:A *40:11 5.07341e-05
*RES
1 module_data_out[3] *331:A 20.0163 
*END

*D_NET *19 0.000827228
*CONN
*P module_data_out[4] I
*I *332:A I *D sky130_fd_sc_hd__clkbuf_1
*CAP
1 module_data_out[4] 0.000404524
2 *332:A 0.000404524
3 *332:A *39:9 1.19071e-05
4 *332:A *40:11 6.27272e-06
*RES
1 module_data_out[4] *332:A 18.1949 
*END

*D_NET *20 0.00082053
*CONN
*P module_data_out[5] I
*I *333:A I *D sky130_fd_sc_hd__clkbuf_1
*CAP
1 module_data_out[5] 0.000386136
2 *333:A 0.000386136
3 *333:A *30:10 0
4 *333:A *40:11 4.82581e-05
*RES
1 module_data_out[5] *333:A 20.9239 
*END

*D_NET *21 0.00106175
*CONN
*P module_data_out[6] I
*I *334:A I *D sky130_fd_sc_hd__clkbuf_1
*CAP
1 module_data_out[6] 0.000530877
2 *334:A 0.000530877
3 *334:A *325:A 0
*RES
1 module_data_out[6] *334:A 18.455 
*END

*D_NET *22 0.000926272
*CONN
*P module_data_out[7] I
*I *325:A I *D sky130_fd_sc_hd__clkbuf_1
*CAP
1 module_data_out[7] 0.000463136
2 *325:A 0.000463136
3 *334:A *325:A 0
*RES
1 module_data_out[7] *325:A 20.6235 
*END

*D_NET *23 0.000747815
*CONN
*P scan_select_in I
*I *326:A I *D sky130_fd_sc_hd__clkbuf_4
*CAP
1 scan_select_in 0.000373908
2 *326:A 0.000373908
*RES
1 scan_select_in *326:A 18.3391 
*END

*D_NET *24 0.00129069
*CONN
*P scan_select_out O
*I *347:X O *D sky130_fd_sc_hd__buf_4
*CAP
1 scan_select_out 0.000645343
2 *347:X 0.000645343
*RES
1 *347:X scan_select_out 27.3518 
*END

*D_NET *27 0.012349
*CONN
*I *349:A I *D sky130_fd_sc_hd__buf_4
*I *355:CLK I *D sky130_fd_sc_hd__sdfxtp_1
*I *357:CLK I *D sky130_fd_sc_hd__sdfxtp_1
*I *354:CLK I *D sky130_fd_sc_hd__sdfxtp_1
*I *356:CLK I *D sky130_fd_sc_hd__sdfxtp_1
*I *353:CLK I *D sky130_fd_sc_hd__sdfxtp_1
*I *352:CLK I *D sky130_fd_sc_hd__sdfxtp_1
*I *351:CLK I *D sky130_fd_sc_hd__sdfxtp_1
*I *344:CLK_N I *D sky130_fd_sc_hd__dfrtn_1
*I *350:CLK I *D sky130_fd_sc_hd__sdfxtp_1
*I *335:X O *D sky130_fd_sc_hd__clkbuf_2
*CAP
1 *349:A 0.000648142
2 *355:CLK 0
3 *357:CLK 0.000138096
4 *354:CLK 0.000274278
5 *356:CLK 1.47323e-05
6 *353:CLK 0
7 *352:CLK 0.000215715
8 *351:CLK 0
9 *344:CLK_N 0.000127666
10 *350:CLK 0
11 *335:X 0.000757337
12 *27:96 0.000818193
13 *27:84 0.000712495
14 *27:65 0.000674777
15 *27:52 0.000479162
16 *27:49 0.000625101
17 *27:31 0.000491665
18 *27:24 0.000838638
19 *27:15 0.000770623
20 *27:8 0.000964965
21 *349:A *355:D 4.13122e-06
22 *349:A *355:SCE 9.83388e-05
23 *352:CLK *351:D 0.000528658
24 *352:CLK *36:21 0.000386336
25 *354:CLK *354:D 0.000170438
26 *354:CLK *40:23 0.000156603
27 *354:CLK *46:19 0.000211912
28 *356:CLK *40:23 2.84026e-05
29 *356:CLK *46:19 5.49489e-05
30 *357:CLK *357:D 0.000229841
31 *357:CLK *31:65 4.74681e-05
32 *357:CLK *31:72 7.34839e-06
33 *27:8 *33:52 0.000174332
34 *27:8 *33:83 9.53685e-05
35 *27:15 *33:41 0.000174332
36 *27:15 *33:52 0.000215139
37 *27:24 *33:41 7.06829e-05
38 *27:31 *351:D 0.000229051
39 *27:31 *351:SCE 4.10905e-05
40 *27:31 *31:39 1.21258e-05
41 *27:31 *35:21 0.000132046
42 *27:31 *36:21 3.44143e-05
43 *27:65 *353:D 7.66438e-05
44 *27:65 *353:SCE 4.75668e-05
45 *27:65 *31:51 4.82865e-05
46 *27:65 *35:21 9.6365e-05
47 *27:65 *37:42 6.20031e-05
48 *27:84 *357:D 0
49 *27:84 *31:65 0.000101363
50 *27:84 *31:72 2.60793e-05
51 *27:96 *355:SCE 0.000141734
52 *27:96 *31:72 9.44085e-05
53 latch_enable_out *27:84 0
*RES
1 *335:X *27:8 27.2286 
2 *27:8 *350:CLK 13.8 
3 *27:8 *27:15 4.98214 
4 *27:15 *344:CLK_N 15.5679 
5 *27:15 *27:24 7.71429 
6 *27:24 *27:31 10.5179 
7 *27:31 *351:CLK 9.3 
8 *27:31 *352:CLK 24.9071 
9 *27:24 *27:49 2.25 
10 *27:49 *27:52 5.85714 
11 *27:52 *353:CLK 9.3 
12 *27:52 *27:65 16.625 
13 *27:65 *356:CLK 9.83571 
14 *27:65 *354:CLK 24.4964 
15 *27:49 *27:84 7.41071 
16 *27:84 *357:CLK 16.8 
17 *27:84 *27:96 8.41071 
18 *27:96 *355:CLK 9.3 
19 *27:96 *349:A 29.6571 
*END

*D_NET *28 0.00614101
*CONN
*I *348:A I *D sky130_fd_sc_hd__buf_4
*I *344:Q O *D sky130_fd_sc_hd__dfrtn_1
*CAP
1 *348:A 0.000937719
2 *344:Q 0.00144234
3 *28:8 0.00238006
4 *28:8 *30:10 0.000234802
5 *28:8 *36:21 0
6 *28:8 *40:23 0.000921086
7 *28:8 *44:27 0.000225016
*RES
1 *344:Q *28:8 47.1036 
2 *28:8 *348:A 27.8893 
*END

*D_NET *29 0.00329045
*CONN
*I *350:D I *D sky130_fd_sc_hd__sdfxtp_1
*I *324:X O *D sky130_fd_sc_hd__clkbuf_1
*CAP
1 *350:D 0
2 *324:X 0.00161487
3 *29:11 0.00161487
4 *29:11 *31:11 4.08587e-06
5 *29:11 *33:83 5.66276e-05
*RES
1 *324:X *29:11 43.742 
2 *29:11 *350:D 9.3 
*END

*D_NET *30 0.00668881
*CONN
*I *357:SCD I *D sky130_fd_sc_hd__sdfxtp_1
*I *325:X O *D sky130_fd_sc_hd__clkbuf_1
*CAP
1 *357:SCD 0.000752963
2 *325:X 0.000366776
3 *30:10 0.00246743
4 *30:7 0.00208124
5 *357:SCD *31:65 3.69047e-06
6 *357:SCD *35:21 8.71481e-05
7 *357:SCD *48:8 0.000121626
8 *30:10 *36:21 0
9 *30:10 *40:11 0
10 *30:10 *40:23 0.000573134
11 *330:A *30:10 0
12 *333:A *30:10 0
13 *28:8 *30:10 0.000234802
*RES
1 *325:X *30:7 18.4429 
2 *30:7 *30:10 40.1429 
3 *30:10 *357:SCD 22.1571 
*END

*D_NET *31 0.0115604
*CONN
*I *352:SCE I *D sky130_fd_sc_hd__sdfxtp_1
*I *351:SCE I *D sky130_fd_sc_hd__sdfxtp_1
*I *353:SCE I *D sky130_fd_sc_hd__sdfxtp_1
*I *356:SCE I *D sky130_fd_sc_hd__sdfxtp_1
*I *354:SCE I *D sky130_fd_sc_hd__sdfxtp_1
*I *357:SCE I *D sky130_fd_sc_hd__sdfxtp_1
*I *355:SCE I *D sky130_fd_sc_hd__sdfxtp_1
*I *347:A I *D sky130_fd_sc_hd__buf_4
*I *350:SCE I *D sky130_fd_sc_hd__sdfxtp_1
*I *326:X O *D sky130_fd_sc_hd__clkbuf_4
*CAP
1 *352:SCE 0.000385908
2 *351:SCE 6.26939e-05
3 *353:SCE 7.02922e-05
4 *356:SCE 6.54108e-05
5 *354:SCE 0.000500673
6 *357:SCE 0
7 *355:SCE 0.000187069
8 *347:A 0
9 *350:SCE 0
10 *326:X 0.00125926
11 *31:72 0.000363151
12 *31:65 0.000467947
13 *31:57 0.00094933
14 *31:51 0.000437391
15 *31:44 0.000476685
16 *31:39 0.000470749
17 *31:32 0.00123882
18 *31:11 0.00189533
19 *352:SCE *352:D 0.000121709
20 *352:SCE *352:SCD 7.57394e-05
21 *354:SCE *354:D 4.15757e-06
22 *354:SCE *38:11 2.59355e-05
23 *356:SCE *40:23 4.89376e-05
24 *31:11 *337:D 7.25296e-05
25 *31:11 *33:52 4.58194e-05
26 *31:11 *45:13 0.000302417
27 *31:32 *344:D 0.000158346
28 *31:32 *48:8 0.000267172
29 *31:39 *352:D 3.04311e-05
30 *31:39 *35:21 2.59355e-05
31 *31:39 *48:8 7.54868e-05
32 *31:44 *48:8 0.00030964
33 *31:51 *40:23 2.59355e-05
34 *31:51 *46:26 1.21258e-05
35 *31:51 *48:8 7.54868e-05
36 *31:57 *40:23 2.43061e-05
37 *31:57 *48:8 0.000289892
38 *31:65 *355:D 4.02986e-05
39 *31:65 *45:13 2.38138e-05
40 *349:A *355:SCE 9.83388e-05
41 *357:CLK *31:65 4.74681e-05
42 *357:CLK *31:72 7.34839e-06
43 *357:SCD *31:65 3.69047e-06
44 *27:31 *351:SCE 4.10905e-05
45 *27:31 *31:39 1.21258e-05
46 *27:65 *353:SCE 4.75668e-05
47 *27:65 *31:51 4.82865e-05
48 *27:84 *31:65 0.000101363
49 *27:84 *31:72 2.60793e-05
50 *27:96 *355:SCE 0.000141734
51 *27:96 *31:72 9.44085e-05
52 *29:11 *31:11 4.08587e-06
*RES
1 *326:X *31:11 36.6304 
2 *31:11 *350:SCE 9.3 
3 *31:11 *31:32 29.5714 
4 *31:32 *31:39 11.9286 
5 *31:39 *31:44 13.0714 
6 *31:44 *31:51 11.9286 
7 *31:51 *31:57 13.0982 
8 *31:57 *31:65 13.6429 
9 *31:65 *31:72 12.6161 
10 *31:72 *347:A 9.3 
11 *31:72 *355:SCE 12.9205 
12 *31:65 *357:SCE 9.3 
13 *31:57 *354:SCE 14.9563 
14 *31:51 *356:SCE 10.2152 
15 *31:44 *353:SCE 10.2732 
16 *31:39 *351:SCE 10.2152 
17 *31:32 *352:SCE 14.3223 
*END

*D_NET *32 0.000290105
*CONN
*I *344:RESET_B I *D sky130_fd_sc_hd__dfrtn_1
*I *345:HI O *D sky130_fd_sc_hd__conb_1
*CAP
1 *344:RESET_B 9.44357e-05
2 *345:HI 9.44357e-05
3 *344:RESET_B *351:D 0.000101233
*RES
1 *345:HI *344:RESET_B 20.1125 
*END

*D_NET *33 0.0086732
*CONN
*I *342:GATE I *D sky130_fd_sc_hd__dlxtp_1
*I *340:GATE I *D sky130_fd_sc_hd__dlxtp_1
*I *341:GATE I *D sky130_fd_sc_hd__dlxtp_1
*I *339:GATE I *D sky130_fd_sc_hd__dlxtp_1
*I *336:GATE I *D sky130_fd_sc_hd__dlxtp_1
*I *337:GATE I *D sky130_fd_sc_hd__dlxtp_1
*I *338:GATE I *D sky130_fd_sc_hd__dlxtp_1
*I *343:GATE I *D sky130_fd_sc_hd__dlxtp_1
*I *346:A I *D sky130_fd_sc_hd__buf_4
*I *327:X O *D sky130_fd_sc_hd__clkbuf_2
*CAP
1 *342:GATE 2.5274e-05
2 *340:GATE 0
3 *341:GATE 2.42116e-05
4 *339:GATE 6.21183e-05
5 *336:GATE 0.000326676
6 *337:GATE 0
7 *338:GATE 0.000211817
8 *343:GATE 0.000163441
9 *346:A 0.000526513
10 *327:X 0
11 *33:94 0.000721772
12 *33:83 0.00059302
13 *33:75 0.000308213
14 *33:59 0.000499813
15 *33:52 0.000637927
16 *33:41 0.000639892
17 *33:11 0.000895061
18 *33:4 0.000542175
19 *338:GATE *338:D 0.000319745
20 *341:GATE *341:D 4.60235e-05
21 *342:GATE *342:D 2.23592e-05
22 *346:A *338:D 0.000124083
23 *33:11 *338:D 0.000148449
24 *33:41 *342:D 4.82865e-05
25 *33:59 *337:D 9.41642e-05
26 *33:59 *338:D 0.000214552
27 *33:59 *45:13 0.000119288
28 *33:75 *45:13 6.47602e-05
29 *33:83 *341:D 0.000356165
30 module_data_in[1] *341:GATE 5.14129e-05
31 module_data_in[1] *33:83 4.64895e-05
32 *327:A *33:11 7.20217e-06
33 *27:8 *33:52 0.000174332
34 *27:8 *33:83 9.53685e-05
35 *27:15 *33:41 0.000174332
36 *27:15 *33:52 0.000215139
37 *27:24 *33:41 7.06829e-05
38 *29:11 *33:83 5.66276e-05
39 *31:11 *33:52 4.58194e-05
*RES
1 *327:X *33:4 9.3 
2 *33:4 *33:11 12.4286 
3 *33:11 *346:A 27.8536 
4 *33:11 *343:GATE 11.8893 
5 *33:4 *33:41 14.875 
6 *33:41 *33:52 24.0536 
7 *33:52 *33:59 14.9821 
8 *33:59 *338:GATE 23.1393 
9 *33:59 *337:GATE 9.3 
10 *33:52 *33:75 1.35714 
11 *33:75 *33:83 15.3929 
12 *33:83 *33:94 10.8036 
13 *33:94 *336:GATE 19.675 
14 *33:94 *339:GATE 14.7464 
15 *33:83 *341:GATE 10.2464 
16 *33:75 *340:GATE 9.3 
17 *33:41 *342:GATE 9.83571 
*END

*D_NET *34 0.00235008
*CONN
*I *350:SCD I *D sky130_fd_sc_hd__sdfxtp_1
*I *328:X O *D sky130_fd_sc_hd__clkbuf_1
*CAP
1 *350:SCD 0.00104233
2 *328:X 0.00104233
3 *350:SCD *351:D 0
4 *350:SCD *36:21 0.000225337
5 module_data_in[6] *350:SCD 3.38089e-05
6 module_data_in[7] *350:SCD 6.27272e-06
*RES
1 *328:X *350:SCD 44.5464 
*END

*D_NET *35 0.00304095
*CONN
*I *351:SCD I *D sky130_fd_sc_hd__sdfxtp_1
*I *329:X O *D sky130_fd_sc_hd__clkbuf_1
*CAP
1 *351:SCD 0
2 *329:X 0.00113281
3 *35:21 0.00113281
4 *35:21 *351:D 0.000193519
5 *35:21 *38:11 0.000121842
6 *35:21 *46:19 4.16517e-05
7 *35:21 *48:8 7.68283e-05
8 *357:SCD *35:21 8.71481e-05
9 *27:31 *35:21 0.000132046
10 *27:65 *35:21 9.6365e-05
11 *31:39 *35:21 2.59355e-05
*RES
1 *329:X *35:21 45.4964 
2 *35:21 *351:SCD 9.3 
*END

*D_NET *36 0.00452341
*CONN
*I *352:SCD I *D sky130_fd_sc_hd__sdfxtp_1
*I *330:X O *D sky130_fd_sc_hd__clkbuf_1
*CAP
1 *352:SCD 0.000103294
2 *330:X 0.001437
3 *36:21 0.00154029
4 *352:SCD *352:D 0.000143375
5 *352:SCD *353:D 0.000125005
6 *36:21 *40:11 6.05161e-06
7 *36:21 *40:23 0
8 *328:A *36:21 0.000326302
9 *329:A *36:21 1.19834e-05
10 *330:A *36:21 0.000108282
11 *350:SCD *36:21 0.000225337
12 *352:CLK *36:21 0.000386336
13 *352:SCE *352:SCD 7.57394e-05
14 *27:31 *36:21 3.44143e-05
15 *28:8 *36:21 0
16 *30:10 *36:21 0
*RES
1 *330:X *36:21 49.3 
2 *36:21 *352:SCD 16.8 
*END

*D_NET *37 0.0036669
*CONN
*I *353:SCD I *D sky130_fd_sc_hd__sdfxtp_1
*I *331:X O *D sky130_fd_sc_hd__clkbuf_1
*CAP
1 *353:SCD 0
2 *331:X 0.00177178
3 *37:42 0.00177178
4 *37:42 *353:D 9.11048e-06
5 *37:42 *355:D 1.50343e-05
6 *37:42 *40:23 3.71887e-05
7 *27:65 *37:42 6.20031e-05
*RES
1 *331:X *37:42 49.1929 
2 *37:42 *353:SCD 9.3 
*END

*D_NET *38 0.0029997
*CONN
*I *354:SCD I *D sky130_fd_sc_hd__sdfxtp_1
*I *332:X O *D sky130_fd_sc_hd__clkbuf_1
*CAP
1 *354:SCD 0
2 *332:X 0.00142305
3 *38:11 0.00142305
4 *38:11 *46:19 5.81642e-06
5 *354:SCE *38:11 2.59355e-05
6 *35:21 *38:11 0.000121842
*RES
1 *332:X *38:11 42.0857 
2 *38:11 *354:SCD 9.3 
*END

*D_NET *39 0.00324951
*CONN
*I *355:SCD I *D sky130_fd_sc_hd__sdfxtp_1
*I *333:X O *D sky130_fd_sc_hd__clkbuf_1
*CAP
1 *355:SCD 0
2 *333:X 0.00157672
3 *39:9 0.00157672
4 *39:9 *46:19 3.69047e-06
5 *331:A *39:9 8.04638e-05
6 *332:A *39:9 1.19071e-05
*RES
1 *333:X *39:9 46.0321 
2 *39:9 *355:SCD 9.3 
*END

*D_NET *40 0.0082336
*CONN
*I *356:SCD I *D sky130_fd_sc_hd__sdfxtp_1
*I *334:X O *D sky130_fd_sc_hd__clkbuf_1
*CAP
1 *356:SCD 0
2 *334:X 0.00182005
3 *40:23 0.00115903
4 *40:11 0.00297907
5 *40:23 *46:19 0.000126216
6 *40:23 *46:26 0.000137793
7 *330:A *40:11 8.45364e-05
8 *331:A *40:11 5.07341e-05
9 *332:A *40:11 6.27272e-06
10 *333:A *40:11 4.82581e-05
11 *354:CLK *40:23 0.000156603
12 *356:CLK *40:23 2.84026e-05
13 *356:SCE *40:23 4.89376e-05
14 *28:8 *40:23 0.000921086
15 *30:10 *40:11 0
16 *30:10 *40:23 0.000573134
17 *31:51 *40:23 2.59355e-05
18 *31:57 *40:23 2.43061e-05
19 *36:21 *40:11 6.05161e-06
20 *36:21 *40:23 0
21 *37:42 *40:23 3.71887e-05
*RES
1 *334:X *40:11 49.7107 
2 *40:11 *40:23 42.1429 
3 *40:23 *356:SCD 9.3 
*END

*D_NET *41 0.00560773
*CONN
*I *336:D I *D sky130_fd_sc_hd__dlxtp_1
*I *351:D I *D sky130_fd_sc_hd__sdfxtp_1
*I *350:Q O *D sky130_fd_sc_hd__sdfxtp_1
*CAP
1 *336:D 0.00128728
2 *351:D 0.000913059
3 *350:Q 4.91439e-05
4 *41:5 0.00224948
5 *351:D *44:27 0
6 module_data_in[0] *336:D 4.71586e-05
7 module_data_in[1] *336:D 0
8 module_data_in[3] *336:D 0
9 module_data_in[5] *336:D 9.14771e-06
10 *344:RESET_B *351:D 0.000101233
11 *350:SCD *351:D 0
12 *352:CLK *351:D 0.000528658
13 *27:31 *351:D 0.000229051
14 *35:21 *351:D 0.000193519
*RES
1 *350:Q *41:5 9.83571 
2 *41:5 *351:D 38.2777 
3 *41:5 *336:D 38.9071 
*END

*D_NET *42 0.00629249
*CONN
*I *352:D I *D sky130_fd_sc_hd__sdfxtp_1
*I *337:D I *D sky130_fd_sc_hd__dlxtp_1
*I *351:Q O *D sky130_fd_sc_hd__sdfxtp_1
*CAP
1 *352:D 0.000609947
2 *337:D 0.000412994
3 *351:Q 0.000239256
4 *42:8 0.0012622
5 *337:D *341:D 0.000481711
6 *337:D *45:13 0.0010025
7 *337:D *46:26 0.00115124
8 *352:D *338:D 0.000184632
9 *352:D *353:D 0.000185104
10 *42:8 *45:13 0.000151333
11 *42:8 *46:26 0.000149363
12 *352:SCD *352:D 0.000143375
13 *352:SCE *352:D 0.000121709
14 *31:11 *337:D 7.25296e-05
15 *31:39 *352:D 3.04311e-05
16 *33:59 *337:D 9.41642e-05
*RES
1 *351:Q *42:8 17.925 
2 *42:8 *337:D 32.8357 
3 *42:8 *352:D 26.0411 
*END

*D_NET *43 0.00545064
*CONN
*I *353:D I *D sky130_fd_sc_hd__sdfxtp_1
*I *338:D I *D sky130_fd_sc_hd__dlxtp_1
*I *352:Q O *D sky130_fd_sc_hd__sdfxtp_1
*CAP
1 *353:D 0.00064254
2 *338:D 0.00138912
3 *352:Q 0
4 *43:4 0.00203166
5 *338:D *45:13 0
6 *338:GATE *338:D 0.000319745
7 *346:A *338:D 0.000124083
8 *352:D *338:D 0.000184632
9 *352:D *353:D 0.000185104
10 *352:SCD *353:D 0.000125005
11 *27:65 *353:D 7.66438e-05
12 *33:11 *338:D 0.000148449
13 *33:59 *338:D 0.000214552
14 *37:42 *353:D 9.11048e-06
*RES
1 *352:Q *43:4 9.3 
2 *43:4 *338:D 43.1929 
3 *43:4 *353:D 28.7018 
*END

*D_NET *44 0.00536587
*CONN
*I *339:D I *D sky130_fd_sc_hd__dlxtp_1
*I *354:D I *D sky130_fd_sc_hd__sdfxtp_1
*I *353:Q O *D sky130_fd_sc_hd__sdfxtp_1
*CAP
1 *339:D 0
2 *354:D 0.00043006
3 *353:Q 0
4 *44:27 0.00182731
5 *44:4 0.00225737
6 *354:D *46:19 0.000192563
7 module_data_in[2] *44:27 0.000131719
8 module_data_in[3] *44:27 0.000123049
9 module_data_in[5] *44:27 4.19624e-06
10 *351:D *44:27 0
11 *354:CLK *354:D 0.000170438
12 *354:SCE *354:D 4.15757e-06
13 *28:8 *44:27 0.000225016
*RES
1 *353:Q *44:4 9.3 
2 *44:4 *354:D 26.4562 
3 *44:4 *44:27 42.6071 
4 *44:27 *339:D 9.3 
*END

*D_NET *45 0.00736584
*CONN
*I *355:D I *D sky130_fd_sc_hd__sdfxtp_1
*I *340:D I *D sky130_fd_sc_hd__dlxtp_1
*I *354:Q O *D sky130_fd_sc_hd__sdfxtp_1
*CAP
1 *355:D 0.000467466
2 *340:D 0
3 *354:Q 0
4 *45:13 0.00145853
5 *45:4 0.001926
6 *355:D *48:8 0.000195562
7 *45:13 *342:D 0.00114388
8 *45:13 *357:D 0.000186862
9 *45:13 *46:26 0.000263959
10 *337:D *45:13 0.0010025
11 *338:D *45:13 0
12 *349:A *355:D 4.13122e-06
13 *31:11 *45:13 0.000302417
14 *31:65 *355:D 4.02986e-05
15 *31:65 *45:13 2.38138e-05
16 *33:59 *45:13 0.000119288
17 *33:75 *45:13 6.47602e-05
18 *37:42 *355:D 1.50343e-05
19 *42:8 *45:13 0.000151333
*RES
1 *354:Q *45:4 9.3 
2 *45:4 *45:13 43.6786 
3 *45:13 *340:D 9.3 
4 *45:4 *355:D 26.5812 
*END

*D_NET *46 0.00864874
*CONN
*I *356:D I *D sky130_fd_sc_hd__sdfxtp_1
*I *341:D I *D sky130_fd_sc_hd__dlxtp_1
*I *355:Q O *D sky130_fd_sc_hd__sdfxtp_1
*CAP
1 *356:D 0
2 *341:D 0.000648509
3 *355:Q 0.00074567
4 *46:26 0.00186284
5 *46:19 0.00196
6 *46:26 *47:7 5.01883e-05
7 module_data_in[1] *341:D 3.08734e-05
8 *327:A *46:26 9.36119e-05
9 *329:A *46:19 2.18722e-05
10 *337:D *341:D 0.000481711
11 *337:D *46:26 0.00115124
12 *341:GATE *341:D 4.60235e-05
13 *354:CLK *46:19 0.000211912
14 *354:D *46:19 0.000192563
15 *356:CLK *46:19 5.49489e-05
16 *31:51 *46:26 1.21258e-05
17 *33:83 *341:D 0.000356165
18 *35:21 *46:19 4.16517e-05
19 *38:11 *46:19 5.81642e-06
20 *39:9 *46:19 3.69047e-06
21 *40:23 *46:19 0.000126216
22 *40:23 *46:26 0.000137793
23 *42:8 *46:26 0.000149363
24 *45:13 *46:26 0.000263959
*RES
1 *355:Q *46:19 32.3312 
2 *46:19 *46:26 39.4152 
3 *46:26 *341:D 21.3536 
4 *46:19 *356:D 9.3 
*END

*D_NET *47 0.00482613
*CONN
*I *357:D I *D sky130_fd_sc_hd__sdfxtp_1
*I *342:D I *D sky130_fd_sc_hd__dlxtp_1
*I *356:Q O *D sky130_fd_sc_hd__sdfxtp_1
*CAP
1 *357:D 0.000467202
2 *342:D 0.00100219
3 *356:Q 0.000102962
4 *47:7 0.00157236
5 latch_enable_out *357:D 0
6 *342:GATE *342:D 2.23592e-05
7 *357:CLK *357:D 0.000229841
8 *27:84 *357:D 0
9 *33:41 *342:D 4.82865e-05
10 *45:13 *342:D 0.00114388
11 *45:13 *357:D 0.000186862
12 *46:26 *47:7 5.01883e-05
*RES
1 *356:Q *47:7 15.1571 
2 *47:7 *342:D 34.9071 
3 *47:7 *357:D 23.117 
*END

*D_NET *48 0.0035878
*CONN
*I *343:D I *D sky130_fd_sc_hd__dlxtp_1
*I *344:D I *D sky130_fd_sc_hd__dfrtn_1
*I *357:Q O *D sky130_fd_sc_hd__sdfxtp_1
*CAP
1 *343:D 0
2 *344:D 0.000148295
3 *357:Q 0.000860585
4 *48:8 0.00100888
5 *355:D *48:8 0.000195562
6 *357:SCD *48:8 0.000121626
7 *31:32 *344:D 0.000158346
8 *31:32 *48:8 0.000267172
9 *31:39 *48:8 7.54868e-05
10 *31:44 *48:8 0.00030964
11 *31:51 *48:8 7.54868e-05
12 *31:57 *48:8 0.000289892
13 *35:21 *48:8 7.68283e-05
*RES
1 *357:Q *48:8 31.3 
2 *48:8 *344:D 16.6929 
3 *48:8 *343:D 13.8 
*END
