*SPEF "ieee 1481-1999"
*DESIGN "scan_controller"
*DATE "11:11:11 Fri 11 11, 1111"
*VENDOR "OpenRCX"
*PROGRAM "Parallel Extraction"
*VERSION "1.0"
*DESIGN_FLOW "NAME_SCOPE LOCAL" "PIN_CAP NONE"
*DIVIDER /
*DELIMITER :
*BUS_DELIMITER []
*T_UNIT 1 NS
*C_UNIT 1 PF
*R_UNIT 1 OHM
*L_UNIT 1 HENRY

*NAME_MAP
*1 active_select[0]
*2 active_select[1]
*3 active_select[2]
*4 active_select[3]
*5 active_select[4]
*6 active_select[5]
*7 active_select[6]
*8 active_select[7]
*9 active_select[8]
*10 clk
*11 driver_sel[0]
*12 driver_sel[1]
*13 inputs[0]
*14 inputs[1]
*15 inputs[2]
*16 inputs[3]
*17 inputs[4]
*18 inputs[5]
*19 inputs[6]
*20 inputs[7]
*21 la_scan_clk_in
*22 la_scan_data_in
*23 la_scan_data_out
*24 la_scan_latch_en
*25 la_scan_select
*26 net43
*27 net53
*28 net54
*29 net55
*30 net56
*31 net57
*32 net58
*33 net59
*34 net60
*35 net61
*36 net62
*37 net44
*38 net63
*39 net64
*40 net65
*41 net66
*42 net67
*43 net68
*44 net69
*45 net70
*46 net71
*47 net72
*48 net45
*49 net73
*50 net74
*51 net75
*52 net76
*53 net77
*54 net78
*55 net79
*56 net80
*57 net46
*58 net47
*59 net48
*60 net49
*61 net50
*62 net51
*63 net52
*64 outputs[0]
*65 outputs[1]
*66 outputs[2]
*67 outputs[3]
*68 outputs[4]
*69 outputs[5]
*70 outputs[6]
*71 outputs[7]
*72 ready
*73 reset
*74 scan_clk_in
*75 scan_clk_out
*76 scan_data_in
*77 scan_data_out
*78 scan_latch_en
*79 scan_select
*80 set_clk_div
*81 slow_clk
*84 _0000_
*85 _0001_
*86 _0002_
*87 _0003_
*88 _0004_
*89 _0005_
*90 _0006_
*91 _0007_
*92 _0008_
*93 _0009_
*94 _0010_
*95 _0011_
*96 _0012_
*97 _0013_
*98 _0014_
*99 _0015_
*100 _0016_
*101 _0017_
*102 _0018_
*103 _0019_
*104 _0020_
*105 _0021_
*106 _0022_
*107 _0023_
*108 _0024_
*109 _0025_
*110 _0026_
*111 _0027_
*112 _0028_
*113 _0029_
*114 _0030_
*115 _0031_
*116 _0032_
*117 _0033_
*118 _0034_
*119 _0035_
*120 _0036_
*121 _0037_
*122 _0038_
*123 _0039_
*124 _0040_
*125 _0041_
*126 _0042_
*127 _0043_
*128 _0044_
*129 _0045_
*130 _0046_
*131 _0047_
*132 _0048_
*133 _0049_
*134 _0050_
*135 _0051_
*136 _0052_
*137 _0053_
*138 _0054_
*139 _0055_
*140 _0056_
*141 _0057_
*142 _0058_
*143 _0059_
*144 _0060_
*145 _0061_
*146 _0062_
*147 _0063_
*148 _0064_
*149 _0065_
*150 _0066_
*151 _0067_
*152 _0068_
*153 _0069_
*154 _0070_
*155 _0071_
*156 _0072_
*157 _0073_
*158 _0074_
*159 _0075_
*160 _0076_
*161 _0077_
*162 _0078_
*163 _0079_
*164 _0080_
*165 _0081_
*166 _0082_
*167 _0083_
*168 _0084_
*169 _0085_
*170 _0086_
*171 _0087_
*172 _0088_
*173 _0089_
*174 _0090_
*175 _0091_
*176 _0092_
*177 _0093_
*178 _0094_
*179 _0095_
*180 _0096_
*181 _0097_
*182 _0098_
*183 _0099_
*184 _0100_
*185 _0101_
*186 _0102_
*187 _0103_
*188 _0104_
*189 _0105_
*190 _0106_
*191 _0107_
*192 _0108_
*193 _0109_
*194 _0110_
*195 _0111_
*196 _0112_
*197 _0113_
*198 _0114_
*199 _0115_
*200 _0116_
*201 _0117_
*202 _0118_
*203 _0119_
*204 _0120_
*205 _0121_
*206 _0122_
*207 _0123_
*208 _0124_
*209 _0125_
*210 _0126_
*211 _0127_
*212 _0128_
*213 _0129_
*214 _0130_
*215 _0131_
*216 _0132_
*217 _0133_
*218 _0134_
*219 _0135_
*220 _0136_
*221 _0137_
*222 _0138_
*223 _0139_
*224 _0140_
*225 _0141_
*226 _0142_
*227 _0143_
*228 _0144_
*229 _0145_
*230 _0146_
*231 _0147_
*232 _0148_
*233 _0149_
*234 _0150_
*235 _0151_
*236 _0152_
*237 _0153_
*238 _0154_
*239 _0155_
*240 _0156_
*241 _0157_
*242 _0158_
*243 _0159_
*244 _0160_
*245 _0161_
*246 _0162_
*247 _0163_
*248 _0164_
*249 _0165_
*250 _0166_
*251 _0167_
*252 _0168_
*253 _0169_
*254 _0170_
*255 _0171_
*256 _0172_
*257 _0173_
*258 _0174_
*259 _0175_
*260 _0176_
*261 _0177_
*262 _0178_
*263 _0179_
*264 _0180_
*265 _0181_
*266 _0182_
*267 _0183_
*268 _0184_
*269 _0185_
*270 _0186_
*271 _0187_
*272 _0188_
*273 _0189_
*274 _0190_
*275 _0191_
*276 _0192_
*277 _0193_
*278 _0194_
*279 _0195_
*280 _0196_
*281 _0197_
*282 _0198_
*283 _0199_
*284 _0200_
*285 _0201_
*286 _0202_
*287 _0203_
*288 _0204_
*289 _0205_
*290 _0206_
*291 _0207_
*292 _0208_
*293 _0209_
*294 _0210_
*295 _0211_
*296 _0212_
*297 _0213_
*298 _0214_
*299 _0215_
*300 _0216_
*301 _0217_
*302 _0218_
*303 _0219_
*304 _0220_
*305 _0221_
*306 _0222_
*307 _0223_
*308 _0224_
*309 _0225_
*310 _0226_
*311 _0227_
*312 _0228_
*313 _0229_
*314 _0230_
*315 _0231_
*316 _0232_
*317 _0233_
*318 _0234_
*319 _0235_
*320 _0236_
*321 _0237_
*322 _0238_
*323 _0239_
*324 _0240_
*325 _0241_
*326 _0242_
*327 _0243_
*328 _0244_
*329 _0245_
*330 _0246_
*331 _0247_
*332 _0248_
*333 _0249_
*334 _0250_
*335 _0251_
*336 _0252_
*337 _0253_
*338 _0254_
*339 _0255_
*340 _0256_
*341 _0257_
*342 _0258_
*343 _0259_
*344 _0260_
*345 _0261_
*346 _0262_
*347 _0263_
*348 _0264_
*349 _0265_
*350 _0266_
*351 _0267_
*352 _0268_
*353 _0269_
*354 _0270_
*355 _0271_
*356 _0272_
*357 _0273_
*358 _0274_
*359 _0275_
*360 _0276_
*361 _0277_
*362 _0278_
*363 _0279_
*364 _0280_
*365 _0281_
*366 _0282_
*367 _0286_
*368 _0287_
*369 _0288_
*370 _0289_
*371 _0290_
*372 _0291_
*373 _0292_
*374 _0293_
*375 _0294_
*376 _0295_
*377 _0296_
*378 _0297_
*379 _0298_
*380 _0299_
*381 _0300_
*382 _0301_
*383 _0302_
*384 _0303_
*385 _0304_
*386 _0305_
*387 _0306_
*388 _0307_
*389 _0308_
*390 _0309_
*391 _0310_
*392 _0311_
*393 _0312_
*394 _0313_
*395 _0314_
*396 _0315_
*397 _0316_
*398 _0317_
*399 _0318_
*400 _0319_
*401 _0320_
*402 _0321_
*403 _0322_
*404 _0323_
*405 _0324_
*406 _0325_
*407 _0326_
*408 _0327_
*409 _0328_
*410 _0329_
*411 _0330_
*412 _0331_
*413 _0332_
*414 _0333_
*415 _0334_
*416 _0335_
*417 _0336_
*418 _0337_
*419 _0338_
*420 _0339_
*421 _0340_
*422 _0341_
*423 _0342_
*424 _0343_
*425 _0344_
*426 _0345_
*427 _0346_
*428 _0347_
*429 _0348_
*430 _0349_
*431 _0350_
*432 _0351_
*433 _0352_
*434 _0353_
*435 _0354_
*436 _0355_
*437 _0356_
*438 _0357_
*439 _0358_
*440 _0359_
*441 _0360_
*442 _0361_
*443 _0362_
*444 _0363_
*445 _0364_
*446 _0365_
*447 _0366_
*448 _0367_
*449 _0368_
*450 _0369_
*451 _0370_
*452 _0371_
*453 _0372_
*454 _0373_
*455 _0374_
*456 _0375_
*457 _0376_
*458 _0377_
*459 _0378_
*460 _0379_
*461 _0380_
*462 _0381_
*463 _0382_
*464 _0383_
*465 _0384_
*466 _0385_
*467 _0386_
*468 _0387_
*469 _0388_
*470 _0389_
*471 _0390_
*472 _0391_
*473 _0392_
*474 _0393_
*475 _0394_
*476 _0395_
*477 _0396_
*478 _0397_
*479 _0398_
*480 _0399_
*481 _0400_
*482 _0401_
*483 _0402_
*484 _0403_
*485 _0404_
*486 _0405_
*487 _0406_
*488 _0407_
*489 _0408_
*490 _0409_
*491 _0410_
*492 _0411_
*493 _0412_
*494 _0413_
*495 _0414_
*496 _0415_
*497 _0416_
*498 _0417_
*499 _0418_
*500 _0419_
*501 active
*502 aio_input_reg\[0\]
*503 aio_input_reg\[1\]
*504 aio_input_reg\[2\]
*505 aio_input_reg\[3\]
*506 aio_input_reg\[4\]
*507 aio_input_reg\[5\]
*508 aio_input_reg\[6\]
*509 aio_input_reg\[7\]
*510 aio_input_sh
*511 aio_input_shift\[0\]
*512 aio_input_shift\[1\]
*513 aio_input_shift\[2\]
*514 aio_input_shift\[3\]
*515 aio_input_shift\[4\]
*516 aio_input_shift\[5\]
*517 aio_input_shift\[6\]
*518 aio_input_shift\[7\]
*519 aio_input_sync\[0\]
*520 aio_input_sync\[1\]
*521 aio_input_sync\[2\]
*522 aio_input_sync\[3\]
*523 aio_input_sync\[4\]
*524 aio_input_sync\[5\]
*525 aio_input_sync\[6\]
*526 aio_input_sync\[7\]
*527 aio_output_cap
*528 aio_output_reg\[0\]
*529 aio_output_reg\[1\]
*530 aio_output_reg\[2\]
*531 aio_output_reg\[3\]
*532 aio_output_reg\[4\]
*533 aio_output_reg\[5\]
*534 aio_output_reg\[6\]
*535 aio_output_reg\[7\]
*536 aio_output_shift\[0\]
*537 aio_output_shift\[1\]
*538 aio_output_shift\[2\]
*539 aio_output_shift\[3\]
*540 aio_output_shift\[4\]
*541 aio_output_shift\[5\]
*542 aio_output_shift\[6\]
*543 aio_output_shift\[7\]
*544 bit_cnt\[0\]
*545 bit_cnt\[1\]
*546 bit_cnt\[2\]
*547 bit_cnt\[3\]
*548 clk_divider_I\.active
*549 clk_divider_I\.ce
*550 clk_divider_I\.compare\[0\]
*551 clk_divider_I\.compare\[1\]
*552 clk_divider_I\.compare\[2\]
*553 clk_divider_I\.compare\[3\]
*554 clk_divider_I\.compare\[4\]
*555 clk_divider_I\.compare\[5\]
*556 clk_divider_I\.compare\[6\]
*557 clk_divider_I\.compare\[7\]
*558 clk_divider_I\.counter\[0\]
*559 clk_divider_I\.counter\[1\]
*560 clk_divider_I\.counter\[2\]
*561 clk_divider_I\.counter\[3\]
*562 clk_divider_I\.counter\[4\]
*563 clk_divider_I\.counter\[5\]
*564 clk_divider_I\.counter\[6\]
*565 clk_divider_I\.counter\[7\]
*566 clk_divider_I\.reset
*567 clk_divider_I\.set_now
*568 clk_divider_I\.set_sync\[0\]
*569 clk_divider_I\.set_sync\[1\]
*570 clknet_0_clk
*571 clknet_0_scan_clk_in
*572 clknet_1_0__leaf_scan_clk_in
*573 clknet_1_1__leaf_scan_clk_in
*574 clknet_3_0__leaf_clk
*575 clknet_3_1__leaf_clk
*576 clknet_3_2__leaf_clk
*577 clknet_3_3__leaf_clk
*578 clknet_3_4__leaf_clk
*579 clknet_3_5__leaf_clk
*580 clknet_3_6__leaf_clk
*581 clknet_3_7__leaf_clk
*582 int_scan_clk_out
*583 int_scan_data_out
*584 int_scan_latch_en
*585 int_scan_select
*586 net1
*587 net10
*588 net11
*589 net12
*590 net13
*591 net14
*592 net15
*593 net16
*594 net17
*595 net18
*596 net19
*597 net2
*598 net20
*599 net21
*600 net22
*601 net23
*602 net24
*603 net25
*604 net26
*605 net27
*606 net28
*607 net29
*608 net3
*609 net30
*610 net31
*611 net32
*612 net33
*613 net34
*614 net35
*615 net36
*616 net37
*617 net38
*618 net39
*619 net4
*620 net40
*621 net41
*622 net42
*623 net5
*624 net6
*625 net7
*626 net8
*627 net81
*628 net82
*629 net83
*630 net84
*631 net9
*632 proj_cnt\[0\]
*633 proj_cnt\[1\]
*634 proj_cnt\[2\]
*635 proj_cnt\[3\]
*636 proj_cnt\[4\]
*637 proj_cnt\[5\]
*638 proj_cnt\[6\]
*639 proj_cnt\[7\]
*640 proj_cnt\[8\]
*641 rst_shift\[0\]
*642 rst_shift\[1\]
*643 state\[0\]
*644 state\[12\]
*645 state\[13\]
*646 state\[1\]
*647 state\[2\]
*648 state\[3\]
*649 state\[4\]
*650 state\[5\]
*651 state\[6\]
*652 state\[8\]
*653 state\[9\]
*654 ws_cfg\[0\]
*655 ws_cfg\[1\]
*656 ws_cfg\[2\]
*657 ws_cfg\[3\]
*658 ws_cfg\[4\]
*659 ws_cfg\[5\]
*660 ws_cfg\[6\]
*661 ws_cfg\[7\]
*662 ws_cnt\[0\]
*663 ws_cnt\[1\]
*664 ws_cnt\[2\]
*665 ws_cnt\[3\]
*666 ws_cnt\[4\]
*667 ws_cnt\[5\]
*668 ws_cnt\[6\]
*669 ws_cnt\[7\]
*670 ws_set_now
*671 ws_set_sync\[0\]
*672 ws_set_sync\[1\]
*673 ws_set_sync\[2\]
*674 ANTENNA_1
*675 ANTENNA_2
*676 ANTENNA_3
*677 FILLER_0_110
*678 FILLER_0_113
*679 FILLER_0_118
*680 FILLER_0_126
*681 FILLER_0_131
*682 FILLER_0_138
*683 FILLER_0_141
*684 FILLER_0_147
*685 FILLER_0_15
*686 FILLER_0_151
*687 FILLER_0_158
*688 FILLER_0_166
*689 FILLER_0_169
*690 FILLER_0_174
*691 FILLER_0_188
*692 FILLER_0_197
*693 FILLER_0_202
*694 FILLER_0_210
*695 FILLER_0_216
*696 FILLER_0_225
*697 FILLER_0_233
*698 FILLER_0_250
*699 FILLER_0_253
*700 FILLER_0_258
*701 FILLER_0_266
*702 FILLER_0_27
*703 FILLER_0_272
*704 FILLER_0_281
*705 FILLER_0_289
*706 FILLER_0_29
*707 FILLER_0_3
*708 FILLER_0_301
*709 FILLER_0_307
*710 FILLER_0_309
*711 FILLER_0_314
*712 FILLER_0_321
*713 FILLER_0_333
*714 FILLER_0_337
*715 FILLER_0_34
*716 FILLER_0_343
*717 FILLER_0_355
*718 FILLER_0_363
*719 FILLER_0_365
*720 FILLER_0_373
*721 FILLER_0_390
*722 FILLER_0_393
*723 FILLER_0_398
*724 FILLER_0_406
*725 FILLER_0_41
*726 FILLER_0_412
*727 FILLER_0_421
*728 FILLER_0_426
*729 FILLER_0_438
*730 FILLER_0_446
*731 FILLER_0_449
*732 FILLER_0_471
*733 FILLER_0_53
*734 FILLER_0_57
*735 FILLER_0_75
*736 FILLER_0_8
*737 FILLER_0_82
*738 FILLER_0_85
*739 FILLER_0_93
*740 FILLER_10_119
*741 FILLER_10_132
*742 FILLER_10_141
*743 FILLER_10_16
*744 FILLER_10_165
*745 FILLER_10_172
*746 FILLER_10_180
*747 FILLER_10_190
*748 FILLER_10_197
*749 FILLER_10_203
*750 FILLER_10_220
*751 FILLER_10_227
*752 FILLER_10_236
*753 FILLER_10_240
*754 FILLER_10_244
*755 FILLER_10_253
*756 FILLER_10_26
*757 FILLER_10_265
*758 FILLER_10_269
*759 FILLER_10_29
*760 FILLER_10_294
*761 FILLER_10_298
*762 FILLER_10_3
*763 FILLER_10_303
*764 FILLER_10_307
*765 FILLER_10_309
*766 FILLER_10_333
*767 FILLER_10_342
*768 FILLER_10_354
*769 FILLER_10_362
*770 FILLER_10_365
*771 FILLER_10_369
*772 FILLER_10_386
*773 FILLER_10_395
*774 FILLER_10_402
*775 FILLER_10_41
*776 FILLER_10_418
*777 FILLER_10_421
*778 FILLER_10_427
*779 FILLER_10_444
*780 FILLER_10_451
*781 FILLER_10_463
*782 FILLER_10_467
*783 FILLER_10_471
*784 FILLER_10_65
*785 FILLER_10_8
*786 FILLER_10_82
*787 FILLER_10_85
*788 FILLER_10_96
*789 FILLER_11_103
*790 FILLER_11_110
*791 FILLER_11_113
*792 FILLER_11_135
*793 FILLER_11_147
*794 FILLER_11_151
*795 FILLER_11_161
*796 FILLER_11_167
*797 FILLER_11_169
*798 FILLER_11_191
*799 FILLER_11_208
*800 FILLER_11_221
*801 FILLER_11_225
*802 FILLER_11_246
*803 FILLER_11_258
*804 FILLER_11_266
*805 FILLER_11_27
*806 FILLER_11_278
*807 FILLER_11_281
*808 FILLER_11_295
*809 FILLER_11_3
*810 FILLER_11_319
*811 FILLER_11_330
*812 FILLER_11_337
*813 FILLER_11_349
*814 FILLER_11_361
*815 FILLER_11_369
*816 FILLER_11_378
*817 FILLER_11_387
*818 FILLER_11_391
*819 FILLER_11_393
*820 FILLER_11_405
*821 FILLER_11_410
*822 FILLER_11_424
*823 FILLER_11_436
*824 FILLER_11_445
*825 FILLER_11_449
*826 FILLER_11_458
*827 FILLER_11_466
*828 FILLER_11_47
*829 FILLER_11_471
*830 FILLER_11_55
*831 FILLER_11_57
*832 FILLER_11_75
*833 FILLER_11_95
*834 FILLER_11_99
*835 FILLER_12_121
*836 FILLER_12_134
*837 FILLER_12_141
*838 FILLER_12_146
*839 FILLER_12_15
*840 FILLER_12_158
*841 FILLER_12_180
*842 FILLER_12_187
*843 FILLER_12_195
*844 FILLER_12_197
*845 FILLER_12_203
*846 FILLER_12_210
*847 FILLER_12_234
*848 FILLER_12_244
*849 FILLER_12_253
*850 FILLER_12_27
*851 FILLER_12_275
*852 FILLER_12_285
*853 FILLER_12_289
*854 FILLER_12_29
*855 FILLER_12_3
*856 FILLER_12_306
*857 FILLER_12_309
*858 FILLER_12_315
*859 FILLER_12_325
*860 FILLER_12_329
*861 FILLER_12_337
*862 FILLER_12_349
*863 FILLER_12_362
*864 FILLER_12_365
*865 FILLER_12_369
*866 FILLER_12_378
*867 FILLER_12_386
*868 FILLER_12_398
*869 FILLER_12_406
*870 FILLER_12_41
*871 FILLER_12_410
*872 FILLER_12_418
*873 FILLER_12_421
*874 FILLER_12_426
*875 FILLER_12_446
*876 FILLER_12_466
*877 FILLER_12_472
*878 FILLER_12_65
*879 FILLER_12_78
*880 FILLER_12_85
*881 FILLER_12_93
*882 FILLER_12_97
*883 FILLER_13_110
*884 FILLER_13_113
*885 FILLER_13_135
*886 FILLER_13_142
*887 FILLER_13_166
*888 FILLER_13_169
*889 FILLER_13_187
*890 FILLER_13_195
*891 FILLER_13_201
*892 FILLER_13_209
*893 FILLER_13_222
*894 FILLER_13_225
*895 FILLER_13_249
*896 FILLER_13_257
*897 FILLER_13_263
*898 FILLER_13_278
*899 FILLER_13_281
*900 FILLER_13_286
*901 FILLER_13_293
*902 FILLER_13_3
*903 FILLER_13_302
*904 FILLER_13_31
*905 FILLER_13_322
*906 FILLER_13_334
*907 FILLER_13_337
*908 FILLER_13_343
*909 FILLER_13_347
*910 FILLER_13_352
*911 FILLER_13_364
*912 FILLER_13_368
*913 FILLER_13_380
*914 FILLER_13_390
*915 FILLER_13_393
*916 FILLER_13_398
*917 FILLER_13_410
*918 FILLER_13_420
*919 FILLER_13_43
*920 FILLER_13_432
*921 FILLER_13_445
*922 FILLER_13_449
*923 FILLER_13_454
*924 FILLER_13_466
*925 FILLER_13_472
*926 FILLER_13_54
*927 FILLER_13_57
*928 FILLER_13_75
*929 FILLER_13_87
*930 FILLER_13_99
*931 FILLER_14_121
*932 FILLER_14_132
*933 FILLER_14_141
*934 FILLER_14_146
*935 FILLER_14_153
*936 FILLER_14_165
*937 FILLER_14_170
*938 FILLER_14_183
*939 FILLER_14_192
*940 FILLER_14_197
*941 FILLER_14_207
*942 FILLER_14_21
*943 FILLER_14_232
*944 FILLER_14_245
*945 FILLER_14_251
*946 FILLER_14_253
*947 FILLER_14_265
*948 FILLER_14_27
*949 FILLER_14_271
*950 FILLER_14_275
*951 FILLER_14_282
*952 FILLER_14_286
*953 FILLER_14_29
*954 FILLER_14_291
*955 FILLER_14_298
*956 FILLER_14_3
*957 FILLER_14_306
*958 FILLER_14_309
*959 FILLER_14_314
*960 FILLER_14_318
*961 FILLER_14_322
*962 FILLER_14_334
*963 FILLER_14_342
*964 FILLER_14_350
*965 FILLER_14_355
*966 FILLER_14_362
*967 FILLER_14_365
*968 FILLER_14_387
*969 FILLER_14_398
*970 FILLER_14_40
*971 FILLER_14_406
*972 FILLER_14_412
*973 FILLER_14_418
*974 FILLER_14_421
*975 FILLER_14_429
*976 FILLER_14_449
*977 FILLER_14_457
*978 FILLER_14_469
*979 FILLER_14_52
*980 FILLER_14_58
*981 FILLER_14_75
*982 FILLER_14_83
*983 FILLER_14_85
*984 FILLER_14_97
*985 FILLER_15_110
*986 FILLER_15_113
*987 FILLER_15_125
*988 FILLER_15_149
*989 FILLER_15_15
*990 FILLER_15_158
*991 FILLER_15_166
*992 FILLER_15_169
*993 FILLER_15_191
*994 FILLER_15_20
*995 FILLER_15_203
*996 FILLER_15_209
*997 FILLER_15_222
*998 FILLER_15_225
*999 FILLER_15_229
*1000 FILLER_15_246
*1001 FILLER_15_258
*1002 FILLER_15_270
*1003 FILLER_15_278
*1004 FILLER_15_281
*1005 FILLER_15_3
*1006 FILLER_15_306
*1007 FILLER_15_330
*1008 FILLER_15_337
*1009 FILLER_15_361
*1010 FILLER_15_385
*1011 FILLER_15_391
*1012 FILLER_15_393
*1013 FILLER_15_398
*1014 FILLER_15_40
*1015 FILLER_15_410
*1016 FILLER_15_417
*1017 FILLER_15_426
*1018 FILLER_15_446
*1019 FILLER_15_449
*1020 FILLER_15_454
*1021 FILLER_15_466
*1022 FILLER_15_472
*1023 FILLER_15_51
*1024 FILLER_15_55
*1025 FILLER_15_57
*1026 FILLER_15_69
*1027 FILLER_15_93
*1028 FILLER_16_114
*1029 FILLER_16_127
*1030 FILLER_16_133
*1031 FILLER_16_137
*1032 FILLER_16_141
*1033 FILLER_16_153
*1034 FILLER_16_165
*1035 FILLER_16_172
*1036 FILLER_16_181
*1037 FILLER_16_193
*1038 FILLER_16_197
*1039 FILLER_16_205
*1040 FILLER_16_209
*1041 FILLER_16_233
*1042 FILLER_16_239
*1043 FILLER_16_244
*1044 FILLER_16_253
*1045 FILLER_16_26
*1046 FILLER_16_281
*1047 FILLER_16_29
*1048 FILLER_16_290
*1049 FILLER_16_296
*1050 FILLER_16_3
*1051 FILLER_16_305
*1052 FILLER_16_309
*1053 FILLER_16_320
*1054 FILLER_16_344
*1055 FILLER_16_351
*1056 FILLER_16_358
*1057 FILLER_16_365
*1058 FILLER_16_373
*1059 FILLER_16_382
*1060 FILLER_16_390
*1061 FILLER_16_399
*1062 FILLER_16_40
*1063 FILLER_16_406
*1064 FILLER_16_413
*1065 FILLER_16_419
*1066 FILLER_16_421
*1067 FILLER_16_428
*1068 FILLER_16_436
*1069 FILLER_16_447
*1070 FILLER_16_459
*1071 FILLER_16_467
*1072 FILLER_16_471
*1073 FILLER_16_48
*1074 FILLER_16_68
*1075 FILLER_16_75
*1076 FILLER_16_83
*1077 FILLER_16_85
*1078 FILLER_16_9
*1079 FILLER_16_93
*1080 FILLER_16_97
*1081 FILLER_17_100
*1082 FILLER_17_11
*1083 FILLER_17_110
*1084 FILLER_17_113
*1085 FILLER_17_117
*1086 FILLER_17_127
*1087 FILLER_17_140
*1088 FILLER_17_15
*1089 FILLER_17_152
*1090 FILLER_17_164
*1091 FILLER_17_169
*1092 FILLER_17_180
*1093 FILLER_17_187
*1094 FILLER_17_194
*1095 FILLER_17_206
*1096 FILLER_17_212
*1097 FILLER_17_22
*1098 FILLER_17_222
*1099 FILLER_17_225
*1100 FILLER_17_236
*1101 FILLER_17_248
*1102 FILLER_17_260
*1103 FILLER_17_272
*1104 FILLER_17_278
*1105 FILLER_17_28
*1106 FILLER_17_281
*1107 FILLER_17_285
*1108 FILLER_17_291
*1109 FILLER_17_299
*1110 FILLER_17_3
*1111 FILLER_17_306
*1112 FILLER_17_317
*1113 FILLER_17_328
*1114 FILLER_17_337
*1115 FILLER_17_344
*1116 FILLER_17_356
*1117 FILLER_17_368
*1118 FILLER_17_374
*1119 FILLER_17_378
*1120 FILLER_17_387
*1121 FILLER_17_391
*1122 FILLER_17_393
*1123 FILLER_17_398
*1124 FILLER_17_404
*1125 FILLER_17_421
*1126 FILLER_17_429
*1127 FILLER_17_446
*1128 FILLER_17_449
*1129 FILLER_17_45
*1130 FILLER_17_461
*1131 FILLER_17_54
*1132 FILLER_17_57
*1133 FILLER_17_68
*1134 FILLER_17_80
*1135 FILLER_17_92
*1136 FILLER_18_111
*1137 FILLER_18_123
*1138 FILLER_18_138
*1139 FILLER_18_141
*1140 FILLER_18_15
*1141 FILLER_18_151
*1142 FILLER_18_163
*1143 FILLER_18_167
*1144 FILLER_18_175
*1145 FILLER_18_181
*1146 FILLER_18_185
*1147 FILLER_18_193
*1148 FILLER_18_197
*1149 FILLER_18_209
*1150 FILLER_18_213
*1151 FILLER_18_217
*1152 FILLER_18_225
*1153 FILLER_18_232
*1154 FILLER_18_240
*1155 FILLER_18_250
*1156 FILLER_18_253
*1157 FILLER_18_258
*1158 FILLER_18_26
*1159 FILLER_18_265
*1160 FILLER_18_271
*1161 FILLER_18_29
*1162 FILLER_18_292
*1163 FILLER_18_3
*1164 FILLER_18_302
*1165 FILLER_18_309
*1166 FILLER_18_323
*1167 FILLER_18_34
*1168 FILLER_18_347
*1169 FILLER_18_355
*1170 FILLER_18_362
*1171 FILLER_18_365
*1172 FILLER_18_387
*1173 FILLER_18_391
*1174 FILLER_18_412
*1175 FILLER_18_421
*1176 FILLER_18_426
*1177 FILLER_18_433
*1178 FILLER_18_44
*1179 FILLER_18_445
*1180 FILLER_18_457
*1181 FILLER_18_469
*1182 FILLER_18_64
*1183 FILLER_18_70
*1184 FILLER_18_74
*1185 FILLER_18_82
*1186 FILLER_18_85
*1187 FILLER_18_91
*1188 FILLER_18_99
*1189 FILLER_19_105
*1190 FILLER_19_110
*1191 FILLER_19_113
*1192 FILLER_19_125
*1193 FILLER_19_145
*1194 FILLER_19_15
*1195 FILLER_19_152
*1196 FILLER_19_164
*1197 FILLER_19_169
*1198 FILLER_19_177
*1199 FILLER_19_194
*1200 FILLER_19_21
*1201 FILLER_19_214
*1202 FILLER_19_222
*1203 FILLER_19_225
*1204 FILLER_19_236
*1205 FILLER_19_260
*1206 FILLER_19_27
*1207 FILLER_19_272
*1208 FILLER_19_278
*1209 FILLER_19_281
*1210 FILLER_19_286
*1211 FILLER_19_3
*1212 FILLER_19_312
*1213 FILLER_19_319
*1214 FILLER_19_323
*1215 FILLER_19_333
*1216 FILLER_19_337
*1217 FILLER_19_344
*1218 FILLER_19_351
*1219 FILLER_19_363
*1220 FILLER_19_375
*1221 FILLER_19_38
*1222 FILLER_19_382
*1223 FILLER_19_389
*1224 FILLER_19_393
*1225 FILLER_19_398
*1226 FILLER_19_404
*1227 FILLER_19_428
*1228 FILLER_19_438
*1229 FILLER_19_446
*1230 FILLER_19_449
*1231 FILLER_19_45
*1232 FILLER_19_461
*1233 FILLER_19_467
*1234 FILLER_19_471
*1235 FILLER_19_54
*1236 FILLER_19_57
*1237 FILLER_19_64
*1238 FILLER_19_71
*1239 FILLER_19_83
*1240 FILLER_19_89
*1241 FILLER_19_93
*1242 FILLER_1_105
*1243 FILLER_1_111
*1244 FILLER_1_113
*1245 FILLER_1_125
*1246 FILLER_1_131
*1247 FILLER_1_135
*1248 FILLER_1_140
*1249 FILLER_1_144
*1250 FILLER_1_166
*1251 FILLER_1_169
*1252 FILLER_1_175
*1253 FILLER_1_179
*1254 FILLER_1_20
*1255 FILLER_1_204
*1256 FILLER_1_211
*1257 FILLER_1_223
*1258 FILLER_1_225
*1259 FILLER_1_240
*1260 FILLER_1_252
*1261 FILLER_1_264
*1262 FILLER_1_276
*1263 FILLER_1_281
*1264 FILLER_1_293
*1265 FILLER_1_3
*1266 FILLER_1_305
*1267 FILLER_1_317
*1268 FILLER_1_32
*1269 FILLER_1_329
*1270 FILLER_1_335
*1271 FILLER_1_337
*1272 FILLER_1_349
*1273 FILLER_1_355
*1274 FILLER_1_358
*1275 FILLER_1_363
*1276 FILLER_1_375
*1277 FILLER_1_387
*1278 FILLER_1_391
*1279 FILLER_1_393
*1280 FILLER_1_405
*1281 FILLER_1_417
*1282 FILLER_1_429
*1283 FILLER_1_44
*1284 FILLER_1_441
*1285 FILLER_1_447
*1286 FILLER_1_449
*1287 FILLER_1_457
*1288 FILLER_1_461
*1289 FILLER_1_468
*1290 FILLER_1_472
*1291 FILLER_1_57
*1292 FILLER_1_65
*1293 FILLER_1_69
*1294 FILLER_1_8
*1295 FILLER_1_81
*1296 FILLER_1_93
*1297 FILLER_20_109
*1298 FILLER_20_113
*1299 FILLER_20_120
*1300 FILLER_20_130
*1301 FILLER_20_134
*1302 FILLER_20_138
*1303 FILLER_20_141
*1304 FILLER_20_148
*1305 FILLER_20_15
*1306 FILLER_20_157
*1307 FILLER_20_169
*1308 FILLER_20_177
*1309 FILLER_20_194
*1310 FILLER_20_197
*1311 FILLER_20_208
*1312 FILLER_20_220
*1313 FILLER_20_232
*1314 FILLER_20_240
*1315 FILLER_20_250
*1316 FILLER_20_253
*1317 FILLER_20_26
*1318 FILLER_20_273
*1319 FILLER_20_285
*1320 FILLER_20_29
*1321 FILLER_20_295
*1322 FILLER_20_3
*1323 FILLER_20_302
*1324 FILLER_20_309
*1325 FILLER_20_321
*1326 FILLER_20_338
*1327 FILLER_20_345
*1328 FILLER_20_357
*1329 FILLER_20_363
*1330 FILLER_20_365
*1331 FILLER_20_377
*1332 FILLER_20_399
*1333 FILLER_20_406
*1334 FILLER_20_418
*1335 FILLER_20_421
*1336 FILLER_20_433
*1337 FILLER_20_445
*1338 FILLER_20_457
*1339 FILLER_20_469
*1340 FILLER_20_47
*1341 FILLER_20_56
*1342 FILLER_20_67
*1343 FILLER_20_76
*1344 FILLER_20_85
*1345 FILLER_20_97
*1346 FILLER_21_104
*1347 FILLER_21_110
*1348 FILLER_21_113
*1349 FILLER_21_122
*1350 FILLER_21_131
*1351 FILLER_21_151
*1352 FILLER_21_158
*1353 FILLER_21_16
*1354 FILLER_21_166
*1355 FILLER_21_169
*1356 FILLER_21_181
*1357 FILLER_21_185
*1358 FILLER_21_205
*1359 FILLER_21_218
*1360 FILLER_21_22
*1361 FILLER_21_225
*1362 FILLER_21_243
*1363 FILLER_21_256
*1364 FILLER_21_268
*1365 FILLER_21_281
*1366 FILLER_21_293
*1367 FILLER_21_3
*1368 FILLER_21_305
*1369 FILLER_21_311
*1370 FILLER_21_317
*1371 FILLER_21_325
*1372 FILLER_21_331
*1373 FILLER_21_335
*1374 FILLER_21_337
*1375 FILLER_21_34
*1376 FILLER_21_345
*1377 FILLER_21_363
*1378 FILLER_21_374
*1379 FILLER_21_38
*1380 FILLER_21_387
*1381 FILLER_21_391
*1382 FILLER_21_393
*1383 FILLER_21_404
*1384 FILLER_21_408
*1385 FILLER_21_425
*1386 FILLER_21_446
*1387 FILLER_21_449
*1388 FILLER_21_46
*1389 FILLER_21_461
*1390 FILLER_21_54
*1391 FILLER_21_57
*1392 FILLER_21_75
*1393 FILLER_21_8
*1394 FILLER_21_84
*1395 FILLER_21_96
*1396 FILLER_22_105
*1397 FILLER_22_109
*1398 FILLER_22_129
*1399 FILLER_22_136
*1400 FILLER_22_141
*1401 FILLER_22_146
*1402 FILLER_22_15
*1403 FILLER_22_163
*1404 FILLER_22_175
*1405 FILLER_22_181
*1406 FILLER_22_194
*1407 FILLER_22_197
*1408 FILLER_22_208
*1409 FILLER_22_220
*1410 FILLER_22_229
*1411 FILLER_22_250
*1412 FILLER_22_253
*1413 FILLER_22_259
*1414 FILLER_22_269
*1415 FILLER_22_27
*1416 FILLER_22_282
*1417 FILLER_22_29
*1418 FILLER_22_3
*1419 FILLER_22_306
*1420 FILLER_22_309
*1421 FILLER_22_316
*1422 FILLER_22_324
*1423 FILLER_22_341
*1424 FILLER_22_362
*1425 FILLER_22_365
*1426 FILLER_22_383
*1427 FILLER_22_396
*1428 FILLER_22_408
*1429 FILLER_22_41
*1430 FILLER_22_414
*1431 FILLER_22_418
*1432 FILLER_22_421
*1433 FILLER_22_439
*1434 FILLER_22_447
*1435 FILLER_22_451
*1436 FILLER_22_471
*1437 FILLER_22_52
*1438 FILLER_22_61
*1439 FILLER_22_81
*1440 FILLER_22_85
*1441 FILLER_22_97
*1442 FILLER_23_105
*1443 FILLER_23_111
*1444 FILLER_23_113
*1445 FILLER_23_133
*1446 FILLER_23_145
*1447 FILLER_23_149
*1448 FILLER_23_15
*1449 FILLER_23_166
*1450 FILLER_23_169
*1451 FILLER_23_173
*1452 FILLER_23_190
*1453 FILLER_23_210
*1454 FILLER_23_217
*1455 FILLER_23_223
*1456 FILLER_23_225
*1457 FILLER_23_237
*1458 FILLER_23_254
*1459 FILLER_23_27
*1460 FILLER_23_274
*1461 FILLER_23_281
*1462 FILLER_23_293
*1463 FILLER_23_297
*1464 FILLER_23_3
*1465 FILLER_23_314
*1466 FILLER_23_323
*1467 FILLER_23_330
*1468 FILLER_23_337
*1469 FILLER_23_348
*1470 FILLER_23_356
*1471 FILLER_23_360
*1472 FILLER_23_380
*1473 FILLER_23_387
*1474 FILLER_23_39
*1475 FILLER_23_391
*1476 FILLER_23_393
*1477 FILLER_23_405
*1478 FILLER_23_417
*1479 FILLER_23_426
*1480 FILLER_23_438
*1481 FILLER_23_446
*1482 FILLER_23_449
*1483 FILLER_23_461
*1484 FILLER_23_51
*1485 FILLER_23_55
*1486 FILLER_23_57
*1487 FILLER_23_62
*1488 FILLER_23_69
*1489 FILLER_23_81
*1490 FILLER_23_93
*1491 FILLER_24_114
*1492 FILLER_24_126
*1493 FILLER_24_138
*1494 FILLER_24_141
*1495 FILLER_24_153
*1496 FILLER_24_165
*1497 FILLER_24_177
*1498 FILLER_24_184
*1499 FILLER_24_197
*1500 FILLER_24_209
*1501 FILLER_24_21
*1502 FILLER_24_221
*1503 FILLER_24_233
*1504 FILLER_24_245
*1505 FILLER_24_251
*1506 FILLER_24_253
*1507 FILLER_24_259
*1508 FILLER_24_263
*1509 FILLER_24_27
*1510 FILLER_24_275
*1511 FILLER_24_287
*1512 FILLER_24_29
*1513 FILLER_24_299
*1514 FILLER_24_3
*1515 FILLER_24_307
*1516 FILLER_24_309
*1517 FILLER_24_321
*1518 FILLER_24_333
*1519 FILLER_24_345
*1520 FILLER_24_357
*1521 FILLER_24_363
*1522 FILLER_24_365
*1523 FILLER_24_373
*1524 FILLER_24_385
*1525 FILLER_24_397
*1526 FILLER_24_409
*1527 FILLER_24_41
*1528 FILLER_24_417
*1529 FILLER_24_421
*1530 FILLER_24_433
*1531 FILLER_24_445
*1532 FILLER_24_456
*1533 FILLER_24_471
*1534 FILLER_24_53
*1535 FILLER_24_65
*1536 FILLER_24_77
*1537 FILLER_24_83
*1538 FILLER_24_85
*1539 FILLER_24_97
*1540 FILLER_25_105
*1541 FILLER_25_111
*1542 FILLER_25_113
*1543 FILLER_25_125
*1544 FILLER_25_137
*1545 FILLER_25_149
*1546 FILLER_25_161
*1547 FILLER_25_167
*1548 FILLER_25_169
*1549 FILLER_25_181
*1550 FILLER_25_193
*1551 FILLER_25_20
*1552 FILLER_25_205
*1553 FILLER_25_217
*1554 FILLER_25_223
*1555 FILLER_25_225
*1556 FILLER_25_237
*1557 FILLER_25_249
*1558 FILLER_25_261
*1559 FILLER_25_273
*1560 FILLER_25_279
*1561 FILLER_25_281
*1562 FILLER_25_293
*1563 FILLER_25_3
*1564 FILLER_25_305
*1565 FILLER_25_317
*1566 FILLER_25_32
*1567 FILLER_25_329
*1568 FILLER_25_335
*1569 FILLER_25_337
*1570 FILLER_25_349
*1571 FILLER_25_361
*1572 FILLER_25_373
*1573 FILLER_25_384
*1574 FILLER_25_393
*1575 FILLER_25_405
*1576 FILLER_25_417
*1577 FILLER_25_429
*1578 FILLER_25_44
*1579 FILLER_25_441
*1580 FILLER_25_447
*1581 FILLER_25_449
*1582 FILLER_25_461
*1583 FILLER_25_467
*1584 FILLER_25_471
*1585 FILLER_25_57
*1586 FILLER_25_69
*1587 FILLER_25_8
*1588 FILLER_25_81
*1589 FILLER_25_93
*1590 FILLER_26_109
*1591 FILLER_26_121
*1592 FILLER_26_133
*1593 FILLER_26_139
*1594 FILLER_26_141
*1595 FILLER_26_153
*1596 FILLER_26_165
*1597 FILLER_26_177
*1598 FILLER_26_189
*1599 FILLER_26_195
*1600 FILLER_26_197
*1601 FILLER_26_208
*1602 FILLER_26_21
*1603 FILLER_26_212
*1604 FILLER_26_229
*1605 FILLER_26_241
*1606 FILLER_26_249
*1607 FILLER_26_253
*1608 FILLER_26_265
*1609 FILLER_26_27
*1610 FILLER_26_277
*1611 FILLER_26_289
*1612 FILLER_26_29
*1613 FILLER_26_3
*1614 FILLER_26_301
*1615 FILLER_26_307
*1616 FILLER_26_309
*1617 FILLER_26_321
*1618 FILLER_26_333
*1619 FILLER_26_345
*1620 FILLER_26_357
*1621 FILLER_26_363
*1622 FILLER_26_365
*1623 FILLER_26_377
*1624 FILLER_26_389
*1625 FILLER_26_401
*1626 FILLER_26_41
*1627 FILLER_26_413
*1628 FILLER_26_419
*1629 FILLER_26_421
*1630 FILLER_26_433
*1631 FILLER_26_441
*1632 FILLER_26_447
*1633 FILLER_26_455
*1634 FILLER_26_461
*1635 FILLER_26_468
*1636 FILLER_26_472
*1637 FILLER_26_53
*1638 FILLER_26_61
*1639 FILLER_26_67
*1640 FILLER_26_79
*1641 FILLER_26_83
*1642 FILLER_26_85
*1643 FILLER_26_9
*1644 FILLER_26_97
*1645 FILLER_27_109
*1646 FILLER_27_113
*1647 FILLER_27_119
*1648 FILLER_27_127
*1649 FILLER_27_132
*1650 FILLER_27_141
*1651 FILLER_27_146
*1652 FILLER_27_158
*1653 FILLER_27_166
*1654 FILLER_27_169
*1655 FILLER_27_17
*1656 FILLER_27_177
*1657 FILLER_27_194
*1658 FILLER_27_197
*1659 FILLER_27_202
*1660 FILLER_27_21
*1661 FILLER_27_214
*1662 FILLER_27_222
*1663 FILLER_27_225
*1664 FILLER_27_233
*1665 FILLER_27_237
*1666 FILLER_27_249
*1667 FILLER_27_253
*1668 FILLER_27_258
*1669 FILLER_27_26
*1670 FILLER_27_266
*1671 FILLER_27_272
*1672 FILLER_27_281
*1673 FILLER_27_289
*1674 FILLER_27_29
*1675 FILLER_27_293
*1676 FILLER_27_3
*1677 FILLER_27_305
*1678 FILLER_27_309
*1679 FILLER_27_314
*1680 FILLER_27_322
*1681 FILLER_27_328
*1682 FILLER_27_337
*1683 FILLER_27_349
*1684 FILLER_27_361
*1685 FILLER_27_365
*1686 FILLER_27_37
*1687 FILLER_27_370
*1688 FILLER_27_377
*1689 FILLER_27_389
*1690 FILLER_27_393
*1691 FILLER_27_398
*1692 FILLER_27_406
*1693 FILLER_27_413
*1694 FILLER_27_419
*1695 FILLER_27_421
*1696 FILLER_27_429
*1697 FILLER_27_446
*1698 FILLER_27_449
*1699 FILLER_27_471
*1700 FILLER_27_48
*1701 FILLER_27_57
*1702 FILLER_27_62
*1703 FILLER_27_70
*1704 FILLER_27_76
*1705 FILLER_27_85
*1706 FILLER_27_9
*1707 FILLER_27_93
*1708 FILLER_27_97
*1709 FILLER_2_109
*1710 FILLER_2_121
*1711 FILLER_2_133
*1712 FILLER_2_138
*1713 FILLER_2_141
*1714 FILLER_2_145
*1715 FILLER_2_149