*SPEF "ieee 1481-1999"
*DESIGN "scanchain"
*DATE "11:11:11 Fri 11 11, 1111"
*VENDOR "OpenRCX"
*PROGRAM "Parallel Extraction"
*VERSION "1.0"
*DESIGN_FLOW "NAME_SCOPE LOCAL" "PIN_CAP NONE"
*DIVIDER /
*DELIMITER :
*BUS_DELIMITER []
*T_UNIT 1 NS
*C_UNIT 1 PF
*R_UNIT 1 OHM
*L_UNIT 1 HENRY

*NAME_MAP
*1 clk_in
*2 clk_out
*3 data_in
*4 data_out
*5 latch_enable_in
*6 latch_enable_out
*7 module_data_in[0]
*8 module_data_in[1]
*9 module_data_in[2]
*10 module_data_in[3]
*11 module_data_in[4]
*12 module_data_in[5]
*13 module_data_in[6]
*14 module_data_in[7]
*15 module_data_out[0]
*16 module_data_out[1]
*17 module_data_out[2]
*18 module_data_out[3]
*19 module_data_out[4]
*20 module_data_out[5]
*21 module_data_out[6]
*22 module_data_out[7]
*23 scan_select_in
*24 scan_select_out
*27 clk
*28 net1
*29 scan_data_in\[1\]
*30 scan_data_in\[2\]
*31 scan_data_in\[3\]
*32 scan_data_in\[4\]
*33 scan_data_in\[5\]
*34 scan_data_in\[6\]
*35 scan_data_in\[7\]
*36 scan_data_out\[7\]
*37 FILLER_0_15
*38 FILLER_0_19
*39 FILLER_0_26
*40 FILLER_0_29
*41 FILLER_0_3
*42 FILLER_0_37
*43 FILLER_10_11
*44 FILLER_10_26
*45 FILLER_10_29
*46 FILLER_10_3
*47 FILLER_10_34
*48 FILLER_11_3
*49 FILLER_11_36
*50 FILLER_12_26
*51 FILLER_12_29
*52 FILLER_12_3
*53 FILLER_12_37
*54 FILLER_13_3
*55 FILLER_13_36
*56 FILLER_14_26
*57 FILLER_14_29
*58 FILLER_14_3
*59 FILLER_14_37
*60 FILLER_15_3
*61 FILLER_15_36
*62 FILLER_16_26
*63 FILLER_16_29
*64 FILLER_16_3
*65 FILLER_16_37
*66 FILLER_17_3
*67 FILLER_17_36
*68 FILLER_18_11
*69 FILLER_18_26
*70 FILLER_18_29
*71 FILLER_18_3
*72 FILLER_18_37
*73 FILLER_19_3
*74 FILLER_19_36
*75 FILLER_1_16
*76 FILLER_1_3
*77 FILLER_1_34
*78 FILLER_20_15
*79 FILLER_20_27
*80 FILLER_20_29
*81 FILLER_20_3
*82 FILLER_20_37
*83 FILLER_21_15
*84 FILLER_21_27
*85 FILLER_21_3
*86 FILLER_21_35
*87 FILLER_22_15
*88 FILLER_22_27
*89 FILLER_22_29
*90 FILLER_22_3
*91 FILLER_22_37
*92 FILLER_23_15
*93 FILLER_23_27
*94 FILLER_23_3
*95 FILLER_23_35
*96 FILLER_24_15
*97 FILLER_24_27
*98 FILLER_24_29
*99 FILLER_24_3
*100 FILLER_24_37
*101 FILLER_25_15
*102 FILLER_25_27
*103 FILLER_25_3
*104 FILLER_25_35
*105 FILLER_26_15
*106 FILLER_26_27
*107 FILLER_26_29
*108 FILLER_26_3
*109 FILLER_26_37
*110 FILLER_27_15
*111 FILLER_27_27
*112 FILLER_27_3
*113 FILLER_27_35
*114 FILLER_28_15
*115 FILLER_28_27
*116 FILLER_28_29
*117 FILLER_28_3
*118 FILLER_28_37
*119 FILLER_29_15
*120 FILLER_29_27
*121 FILLER_29_3
*122 FILLER_29_35
*123 FILLER_2_15
*124 FILLER_2_27
*125 FILLER_2_29
*126 FILLER_2_3
*127 FILLER_2_37
*128 FILLER_30_15
*129 FILLER_30_27
*130 FILLER_30_29
*131 FILLER_30_3
*132 FILLER_30_37
*133 FILLER_31_15
*134 FILLER_31_27
*135 FILLER_31_3
*136 FILLER_31_35
*137 FILLER_32_15
*138 FILLER_32_27
*139 FILLER_32_29
*140 FILLER_32_3
*141 FILLER_32_37
*142 FILLER_33_15
*143 FILLER_33_27
*144 FILLER_33_3
*145 FILLER_33_35
*146 FILLER_34_15
*147 FILLER_34_27
*148 FILLER_34_29
*149 FILLER_34_3
*150 FILLER_34_37
*151 FILLER_35_15
*152 FILLER_35_27
*153 FILLER_35_3
*154 FILLER_35_35
*155 FILLER_36_15
*156 FILLER_36_27
*157 FILLER_36_29
*158 FILLER_36_3
*159 FILLER_36_37
*160 FILLER_37_15
*161 FILLER_37_27
*162 FILLER_37_3
*163 FILLER_37_35
*164 FILLER_38_15
*165 FILLER_38_27
*166 FILLER_38_29
*167 FILLER_38_3
*168 FILLER_38_37
*169 FILLER_39_15
*170 FILLER_39_27
*171 FILLER_39_29
*172 FILLER_39_3
*173 FILLER_39_37
*174 FILLER_3_15
*175 FILLER_3_23
*176 FILLER_3_3
*177 FILLER_3_36
*178 FILLER_4_15
*179 FILLER_4_27
*180 FILLER_4_29
*181 FILLER_4_3
*182 FILLER_4_37
*183 FILLER_5_15
*184 FILLER_5_23
*185 FILLER_5_3
*186 FILLER_5_36
*187 FILLER_6_11
*188 FILLER_6_26
*189 FILLER_6_29
*190 FILLER_6_3
*191 FILLER_6_35
*192 FILLER_7_20
*193 FILLER_7_3
*194 FILLER_7_36
*195 FILLER_7_7
*196 FILLER_8_11
*197 FILLER_8_26
*198 FILLER_8_29
*199 FILLER_8_3
*200 FILLER_8_37
*201 FILLER_9_11
*202 FILLER_9_3
*203 FILLER_9_36
*204 PHY_0
*205 PHY_1
*206 PHY_10
*207 PHY_11
*208 PHY_12
*209 PHY_13
*210 PHY_14
*211 PHY_15
*212 PHY_16
*213 PHY_17
*214 PHY_18
*215 PHY_19
*216 PHY_2
*217 PHY_20
*218 PHY_21
*219 PHY_22
*220 PHY_23
*221 PHY_24
*222 PHY_25
*223 PHY_26
*224 PHY_27
*225 PHY_28
*226 PHY_29
*227 PHY_3
*228 PHY_30
*229 PHY_31
*230 PHY_32
*231 PHY_33
*232 PHY_34
*233 PHY_35
*234 PHY_36
*235 PHY_37
*236 PHY_38
*237 PHY_39
*238 PHY_4
*239 PHY_40
*240 PHY_41
*241 PHY_42
*242 PHY_43
*243 PHY_44
*244 PHY_45
*245 PHY_46
*246 PHY_47
*247 PHY_48
*248 PHY_49
*249 PHY_5
*250 PHY_50
*251 PHY_51
*252 PHY_52
*253 PHY_53
*254 PHY_54
*255 PHY_55
*256 PHY_56
*257 PHY_57
*258 PHY_58
*259 PHY_59
*260 PHY_6
*261 PHY_60
*262 PHY_61
*263 PHY_62
*264 PHY_63
*265 PHY_64
*266 PHY_65
*267 PHY_66
*268 PHY_67
*269 PHY_68
*270 PHY_69
*271 PHY_7
*272 PHY_70
*273 PHY_71
*274 PHY_72
*275 PHY_73
*276 PHY_74
*277 PHY_75
*278 PHY_76
*279 PHY_77
*280 PHY_78
*281 PHY_79
*282 PHY_8
*283 PHY_9
*284 TAP_100
*285 TAP_80
*286 TAP_81
*287 TAP_82
*288 TAP_83
*289 TAP_84
*290 TAP_85
*291 TAP_86
*292 TAP_87
*293 TAP_88
*294 TAP_89
*295 TAP_90
*296 TAP_91
*297 TAP_92
*298 TAP_93
*299 TAP_94
*300 TAP_95
*301 TAP_96
*302 TAP_97
*303 TAP_98
*304 TAP_99
*305 buf_clk
*306 buf_clk_int
*307 latch\[0\]
*308 latch\[1\]
*309 latch\[2\]
*310 latch\[3\]
*311 latch\[4\]
*312 latch\[5\]
*313 latch\[6\]
*314 latch\[7\]
*315 out_flop
*316 out_flop_1
*317 scan_flop\[0\]
*318 scan_flop\[1\]
*319 scan_flop\[2\]
*320 scan_flop\[3\]
*321 scan_flop\[4\]
*322 scan_flop\[5\]
*323 scan_flop\[6\]
*324 scan_flop\[7\]
*325 through_buffers\[0\]
*326 through_buffers\[1\]

*PORTS
clk_in I
clk_out O
data_in I
data_out O
latch_enable_in I
latch_enable_out O
module_data_in[0] O
module_data_in[1] O
module_data_in[2] O
module_data_in[3] O
module_data_in[4] O
module_data_in[5] O
module_data_in[6] O
module_data_in[7] O
module_data_out[0] I
module_data_out[1] I
module_data_out[2] I
module_data_out[3] I
module_data_out[4] I
module_data_out[5] I
module_data_out[6] I
module_data_out[7] I
scan_select_in I
scan_select_out O

*D_NET *1 0.00154196
*CONN
*P clk_in I
*I *305:A I *D sky130_fd_sc_hd__clkinv_4
*CAP
1 clk_in 0.000700112
2 *305:A 0.000700112
3 *305:A *3:14 0
4 *305:A *23:12 0.000141734
*RES
1 clk_in *305:A 26.6929 
*END

*D_NET *2 0.00393616
*CONN
*P clk_out O
*I *306:A I *D sky130_fd_sc_hd__clkinv_2
*I *305:Y O *D sky130_fd_sc_hd__clkinv_4
*CAP
1 clk_out 0.000708898
2 *306:A 0.000679724
3 *305:Y 0.00039789
4 *2:5 0.00178651
5 clk_out module_data_in[0] 0
6 *306:A data_out 0
7 *306:A *5:25 0
8 *2:5 scan_select_out 5.20669e-05
9 *2:5 *326:A 0.000311069
*RES
1 *305:Y *2:5 16.8179 
2 *2:5 *306:A 29.9607 
3 *2:5 clk_out 16.4643 
*END

*D_NET *3 0.00481411
*CONN
*P data_in I
*I *317:D I *D sky130_fd_sc_hd__sdfxtp_1
*CAP
1 data_in 0.00185754
2 *317:D 6.40789e-05
3 *3:14 0.00192162
4 *317:D *317:SCE 4.58919e-06
5 *3:14 *311:D 2.82057e-05
6 *3:14 *314:GATE 0.000312195
7 *3:14 *317:SCE 2.17243e-05
8 *3:14 *319:D 8.14853e-05
9 *3:14 *5:54 0
10 *3:14 *5:67 0
11 *3:14 *5:71 0.000398849
12 *3:14 *23:12 0
13 *3:14 *23:54 1.07866e-05
14 *3:14 *27:28 0.000113043
15 *305:A *3:14 0
*RES
1 data_in *3:14 49.3304 
2 *3:14 *317:D 10.2598 
*END

*D_NET *4 0.00321474
*CONN
*P data_out O
*I *315:Q O *D sky130_fd_sc_hd__dfrtp_4
*CAP
1 data_out 0.00152214
2 *315:Q 0.00152214
3 data_out module_data_in[0] 2.21416e-05
4 data_out scan_select_out 0
5 data_out *34:32 0.000148312
6 *306:A data_out 0
*RES
1 *315:Q data_out 40.7286 
*END

*D_NET *5 0.0117172
*CONN
*P latch_enable_in I
*I *312:GATE I *D sky130_fd_sc_hd__dlxtp_1
*I *310:GATE I *D sky130_fd_sc_hd__dlxtp_1
*I *309:GATE I *D sky130_fd_sc_hd__dlxtp_1
*I *311:GATE I *D sky130_fd_sc_hd__dlxtp_1
*I *314:GATE I *D sky130_fd_sc_hd__dlxtp_1
*I *313:GATE I *D sky130_fd_sc_hd__dlxtp_1
*I *308:GATE I *D sky130_fd_sc_hd__dlxtp_1
*I *307:GATE I *D sky130_fd_sc_hd__dlxtp_1
*I *325:A I *D sky130_fd_sc_hd__buf_4
*CAP
1 latch_enable_in 0.000265171
2 *312:GATE 0.000384704
3 *310:GATE 6.30201e-05
4 *309:GATE 0
5 *311:GATE 0.000136615
6 *314:GATE 0.000886579
7 *313:GATE 0.000373651
8 *308:GATE 0
9 *307:GATE 6.81388e-05
10 *325:A 0
11 *5:71 0.00147935
12 *5:67 0.000546434
13 *5:54 0.00050481
14 *5:50 0.000630412
15 *5:44 0.000379324
16 *5:42 0.000698403
17 *5:25 0.000926977
18 *5:8 0.00081031
19 *311:GATE *311:D 0.000160576
20 *312:GATE *312:D 5.65955e-05
21 *314:GATE *311:D 0.000511908
22 *314:GATE *322:CLK 0.000395427
23 *314:GATE *322:D 0.000652735
24 *314:GATE *27:28 0.000395427
25 *314:GATE *32:14 0
26 *5:8 latch_enable_out 0
27 *5:8 *23:12 0
28 *5:25 module_data_in[1] 0
29 *5:50 module_data_in[1] 6.20031e-05
30 *5:50 *23:31 0.000101557
31 *5:71 *311:D 0.000516031
32 *306:A *5:25 0
33 *3:14 *314:GATE 0.000312195
34 *3:14 *5:54 0
35 *3:14 *5:67 0
36 *3:14 *5:71 0.000398849
*RES
1 latch_enable_in *5:8 8.91071 
2 *5:8 *325:A 9.3 
3 *5:8 *5:25 14.1786 
4 *5:25 *307:GATE 14.7464 
5 *5:25 *5:42 6.30357 
6 *5:42 *5:44 4.5 
7 *5:44 *5:50 14.9643 
8 *5:50 *5:54 9.64286 
9 *5:54 *308:GATE 13.8 
10 *5:54 *5:67 8.01786 
11 *5:67 *5:71 12.0714 
12 *5:71 *313:GATE 19.2643 
13 *5:71 *314:GATE 38.5143 
14 *5:67 *311:GATE 12.3 
15 *5:50 *309:GATE 9.3 
16 *5:44 *310:GATE 10.2464 
17 *5:42 *312:GATE 21.05 
*END

*D_NET *6 0.000342756
*CONN
*P latch_enable_out O
*I *325:X O *D sky130_fd_sc_hd__buf_4
*CAP
1 latch_enable_out 0.000171378
2 *325:X 0.000171378
3 latch_enable_out scan_select_out 0
4 *5:8 latch_enable_out 0
*RES
1 *325:X latch_enable_out 16.675 
*END

*D_NET *7 0.00168662
*CONN
*P module_data_in[0] O
*I *307:Q O *D sky130_fd_sc_hd__dlxtp_1
*CAP
1 module_data_in[0] 0.00083224
2 *307:Q 0.00083224
3 clk_out module_data_in[0] 0
4 data_out module_data_in[0] 2.21416e-05
*RES
1 *307:Q module_data_in[0] 30.1362 
*END

*D_NET *8 0.00400685
*CONN
*P module_data_in[1] O
*I *308:Q O *D sky130_fd_sc_hd__dlxtp_1
*CAP
1 module_data_in[1] 0.00197242
2 *308:Q 0.00197242
3 module_data_in[1] module_data_in[2] 0
4 *5:25 module_data_in[1] 0
5 *5:50 module_data_in[1] 6.20031e-05
*RES
1 *308:Q module_data_in[1] 32.1748 
*END

*D_NET *9 0.00214018
*CONN
*P module_data_in[2] O
*I *309:Q O *D sky130_fd_sc_hd__dlxtp_1
*CAP
1 module_data_in[2] 0.000832104
2 *309:Q 0.000832104
3 module_data_in[2] module_data_in[3] 9.20178e-05
4 module_data_in[2] *31:33 0.000330626
5 module_data_in[2] *32:33 5.33277e-05
6 module_data_in[1] module_data_in[2] 0
*RES
1 *309:Q module_data_in[2] 29.1184 
*END

*D_NET *10 0.00139167
*CONN
*P module_data_in[3] O
*I *310:Q O *D sky130_fd_sc_hd__dlxtp_1
*CAP
1 module_data_in[3] 0.000497476
2 *310:Q 0.000497476
3 module_data_in[3] *31:33 0.00011195
4 module_data_in[3] *32:33 0.000192748
5 module_data_in[2] module_data_in[3] 9.20178e-05
*RES
1 *310:Q module_data_in[3] 25.2791 
*END

*D_NET *11 0.00265721
*CONN
*P module_data_in[4] O
*I *311:Q O *D sky130_fd_sc_hd__dlxtp_1
*CAP
1 module_data_in[4] 0.00104827
2 *311:Q 0.00104827
3 module_data_in[4] *307:D 0.000292063
4 module_data_in[4] *315:RESET_B 0.000125241
5 module_data_in[4] *27:54 0
6 module_data_in[4] *34:32 0.000143375
*RES
1 *311:Q module_data_in[4] 24.4322 
*END

*D_NET *12 0.00270448
*CONN
*P module_data_in[5] O
*I *312:Q O *D sky130_fd_sc_hd__dlxtp_1
*CAP
1 module_data_in[5] 0.000953952
2 *312:Q 0.000953952
3 module_data_in[5] module_data_in[6] 0.000452989
4 module_data_in[5] *31:33 0.000343585
5 module_data_in[5] *34:32 0
*RES
1 *312:Q module_data_in[5] 34.8505 
*END

*D_NET *13 0.00393957
*CONN
*P module_data_in[6] O
*I *313:Q O *D sky130_fd_sc_hd__dlxtp_1
*CAP
1 module_data_in[6] 0.00121913
2 *313:Q 0.00121913
3 module_data_in[6] *315:RESET_B 1.2081e-05
4 module_data_in[6] *320:D 0.000238447
5 module_data_in[6] *16:15 0.000129498
6 module_data_in[6] *31:33 0.000668288
7 module_data_in[5] module_data_in[6] 0.000452989
*RES
1 *313:Q module_data_in[6] 37.0207 
*END

*D_NET *14 0.00175183
*CONN
*P module_data_in[7] O
*I *314:Q O *D sky130_fd_sc_hd__dlxtp_1
*CAP
1 module_data_in[7] 0.000866826
2 *314:Q 0.000866826
3 module_data_in[7] *320:SCE 1.19071e-05
4 module_data_in[7] *15:15 0
5 module_data_in[7] *17:15 6.27272e-06
*RES
1 *314:Q module_data_in[7] 18.9156 
*END

*D_NET *15 0.00617921
*CONN
*P module_data_out[0] I
*I *317:SCD I *D sky130_fd_sc_hd__sdfxtp_1
*CAP
1 module_data_out[0] 0.00170032
2 *317:SCD 0
3 *15:15 0.00170032
4 *15:15 *16:15 0.00165708
5 *15:15 *20:12 0.000865322
6 *15:15 *29:8 5.018e-05
7 *15:15 *32:33 0.000205979
8 module_data_in[7] *15:15 0
*RES
1 module_data_out[0] *15:15 43.0387 
2 *15:15 *317:SCD 9.3 
*END

*D_NET *16 0.00719819
*CONN
*P module_data_out[1] I
*I *318:SCD I *D sky130_fd_sc_hd__sdfxtp_1
*CAP
1 module_data_out[1] 0.00120918
2 *318:SCD 0
3 *16:15 0.00120918
4 *16:15 *318:CLK 9.83442e-05
5 *16:15 *318:D 7.66493e-05
6 *16:15 *318:SCE 7.26256e-05
7 *16:15 *320:D 5.15966e-05
8 *16:15 *20:12 0.000417244
9 *16:15 *22:10 0.00164588
10 *16:15 *31:33 0.000521347
11 *16:15 *32:33 0.000109566
12 module_data_in[6] *16:15 0.000129498
13 *15:15 *16:15 0.00165708
*RES
1 module_data_out[1] *16:15 48.1975 
2 *16:15 *318:SCD 9.3 
*END

*D_NET *17 0.00620069
*CONN
*P module_data_out[2] I
*I *319:SCD I *D sky130_fd_sc_hd__sdfxtp_1
*CAP
1 module_data_out[2] 0.00263047
2 *319:SCD 0
3 *17:15 0.00263047
4 *17:15 *320:CLK 0
5 *17:15 *320:D 3.14963e-05
6 *17:15 *320:SCE 0
7 *17:15 *321:SCD 0.000123359
8 *17:15 *323:D 0.000121564
9 *17:15 *324:SCD 0.000169844
10 *17:15 *324:SCE 0.000139815
11 *17:15 *19:12 0
12 *17:15 *31:5 4.25569e-05
13 *17:15 *32:14 0.000304836
14 module_data_in[7] *17:15 6.27272e-06
*RES
1 module_data_out[2] *17:15 45.0285 
2 *17:15 *319:SCD 9.3 
*END

*D_NET *18 0.00485721
*CONN
*P module_data_out[3] I
*I *320:SCD I *D sky130_fd_sc_hd__sdfxtp_1
*CAP
1 module_data_out[3] 0.0012761
2 *320:SCD 0.0012761
3 *320:SCD *320:CLK 9.83442e-05
4 *320:SCD *320:D 0.000172639
5 *320:SCD *320:SCE 7.26256e-05
6 *320:SCD *19:12 0
7 *320:SCD *21:10 0.00196141
*RES
1 module_data_out[3] *320:SCD 48.6005 
*END

*D_NET *19 0.0071185
*CONN
*P module_data_out[4] I
*I *321:SCD I *D sky130_fd_sc_hd__sdfxtp_1
*CAP
1 module_data_out[4] 0.00268232
2 *321:SCD 0.000527991
3 *19:12 0.00321031
4 *321:SCD *321:SCE 2.12005e-05
5 *321:SCD *324:CLK 5.06736e-05
6 *321:SCD *324:D 1.59935e-05
7 *321:SCD *324:SCE 0.00020125
8 *321:SCD *23:71 7.20217e-06
9 *321:SCD *32:14 2.51903e-05
10 *321:SCD *32:19 5.65955e-05
11 *19:12 *320:CLK 0
12 *19:12 *320:D 0
13 *19:12 *20:12 0
14 *19:12 *21:10 0
15 *19:12 *34:32 0.000196423
16 *320:SCD *19:12 0
17 *17:15 *321:SCD 0.000123359
18 *17:15 *19:12 0
*RES
1 module_data_out[4] *19:12 46.4287 
2 *19:12 *321:SCD 31.4786 
*END

*D_NET *20 0.00784262
*CONN
*P module_data_out[5] I
*I *322:SCD I *D sky130_fd_sc_hd__sdfxtp_1
*CAP
1 module_data_out[5] 0.00184998
2 *322:SCD 0.000820808
3 *20:12 0.00267079
4 *322:SCD *323:SCD 0
5 *322:SCD *324:SCD 0.00041015
6 *322:SCD *34:5 3.05522e-05
7 *20:12 *22:10 0.000777777
8 *15:15 *20:12 0.000865322
9 *16:15 *20:12 0.000417244
10 *19:12 *20:12 0
*RES
1 module_data_out[5] *20:12 48.2721 
2 *20:12 *322:SCD 28.3 
*END

*D_NET *21 0.00968006
*CONN
*P module_data_out[6] I
*I *323:SCD I *D sky130_fd_sc_hd__sdfxtp_1
*CAP
1 module_data_out[6] 0.000136186
2 *323:SCD 0.000420723
3 *21:10 0.00151012
4 *21:9 0.00122559
5 *323:SCD *323:CLK 9.83442e-05
6 *323:SCD *323:D 1.37693e-05
7 *323:SCD *323:SCE 7.26256e-05
8 *21:10 *320:D 0.000321145
9 *21:10 *22:10 0.00392014
10 *320:SCD *21:10 0.00196141
11 *322:SCD *323:SCD 0
12 *19:12 *21:10 0
*RES
1 module_data_out[6] *21:9 3.7296 
2 *21:9 *21:10 48.2411 
3 *21:10 *323:SCD 20.9071 
*END

*D_NET *22 0.0112238
*CONN
*P module_data_out[7] I
*I *324:SCD I *D sky130_fd_sc_hd__sdfxtp_1
*CAP
1 module_data_out[7] 0.000112079
2 *324:SCD 0.000378371
3 *22:10 0.00173151
4 *22:8 0.00146522
5 *324:SCD *34:5 0.000137179
6 *324:SCD *34:32 0.000351227
7 *22:10 *320:D 0.000124406
8 *322:SCD *324:SCD 0.00041015
9 *16:15 *22:10 0.00164588
10 *17:15 *324:SCD 0.000169844
11 *20:12 *22:10 0.000777777
12 *21:10 *22:10 0.00392014
*RES
1 module_data_out[7] *22:8 4.48803 
2 *22:8 *22:10 59.1696 
3 *22:10 *324:SCD 32.5679 
*END

*D_NET *23 0.0157566
*CONN
*P scan_select_in I
*I *326:A I *D sky130_fd_sc_hd__buf_4
*I *318:SCE I *D sky130_fd_sc_hd__sdfxtp_1
*I *323:SCE I *D sky130_fd_sc_hd__sdfxtp_1
*I *320:SCE I *D sky130_fd_sc_hd__sdfxtp_1
*I *322:SCE I *D sky130_fd_sc_hd__sdfxtp_1
*I *321:SCE I *D sky130_fd_sc_hd__sdfxtp_1
*I *324:SCE I *D sky130_fd_sc_hd__sdfxtp_1
*I *319:SCE I *D sky130_fd_sc_hd__sdfxtp_1
*I *317:SCE I *D sky130_fd_sc_hd__sdfxtp_1
*CAP
1 scan_select_in 0.000412797
2 *326:A 0.000368987
3 *318:SCE 0.000449622
4 *323:SCE 0.000257594
5 *320:SCE 0.000614547
6 *322:SCE 8.70928e-05
7 *321:SCE 9.9445e-05
8 *324:SCE 0.000308049
9 *319:SCE 0.00040989
10 *317:SCE 6.74724e-05
11 *23:109 0.00151457
12 *23:97 0.00111526
13 *23:71 0.00100159
14 *23:58 0.0010215
15 *23:54 0.000571034
16 *23:41 0.000527295
17 *23:31 0.00232623
18 *23:12 0.00236635
19 *319:SCE *319:D 8.04728e-05
20 *319:SCE *32:14 1.1146e-05
21 *319:SCE *33:7 2.03069e-05
22 *321:SCE *32:19 1.10868e-05
23 *321:SCE *32:33 2.90659e-05
24 *322:SCE *322:D 4.02097e-06
25 *324:SCE *27:72 3.58978e-05
26 *324:SCE *27:81 2.26675e-05
27 *324:SCE *31:5 7.34825e-06
28 *324:SCE *32:14 0.000191801
29 *23:31 *313:D 5.33005e-05
30 *23:31 *315:D 0.000391849
31 *23:41 *27:24 9.11048e-06
32 *23:41 *30:7 9.83442e-05
33 *23:71 *32:19 1.34631e-05
34 *23:71 *33:7 1.55758e-05
35 *23:97 *319:D 2.27918e-05
36 *23:109 *35:12 2.83019e-05
37 module_data_in[7] *320:SCE 1.19071e-05
38 *305:A *23:12 0.000141734
39 *317:D *317:SCE 4.58919e-06
40 *320:SCD *320:SCE 7.26256e-05
41 *321:SCD *321:SCE 2.12005e-05
42 *321:SCD *324:SCE 0.00020125
43 *321:SCD *23:71 7.20217e-06
44 *323:SCD *323:SCE 7.26256e-05
45 *2:5 *326:A 0.000311069
46 *3:14 *317:SCE 2.17243e-05
47 *3:14 *23:12 0
48 *3:14 *23:54 1.07866e-05
49 *5:8 *23:12 0
50 *5:50 *23:31 0.000101557
51 *16:15 *318:SCE 7.26256e-05
52 *17:15 *320:SCE 0
53 *17:15 *324:SCE 0.000139815
*RES
1 scan_select_in *23:12 12.4107 
2 *23:12 *23:31 47.0536 
3 *23:31 *23:41 9.66964 
4 *23:41 *317:SCE 15.0679 
5 *23:41 *23:54 3.16071 
6 *23:54 *23:58 5.08036 
7 *23:58 *319:SCE 23.3089 
8 *23:58 *23:71 6.69643 
9 *23:71 *324:SCE 33.9205 
10 *23:71 *321:SCE 10.6259 
11 *23:54 *23:97 6.88393 
12 *23:97 *322:SCE 14.7196 
13 *23:97 *23:109 13.2143 
14 *23:109 *320:SCE 27.3223 
15 *23:109 *323:SCE 12.2688 
16 *23:31 *318:SCE 14.7509 
17 *23:12 *326:A 16.425 
*END

*D_NET *24 0.000768537
*CONN
*P scan_select_out O
*I *326:X O *D sky130_fd_sc_hd__buf_4
*CAP
1 scan_select_out 0.000358235
2 *326:X 0.000358235
3 data_out scan_select_out 0
4 latch_enable_out scan_select_out 0
5 *2:5 scan_select_out 5.20669e-05
*RES
1 *326:X scan_select_out 20.4786 
*END

*D_NET *27 0.0100193
*CONN
*I *320:CLK I *D sky130_fd_sc_hd__sdfxtp_1
*I *323:CLK I *D sky130_fd_sc_hd__sdfxtp_1
*I *324:CLK I *D sky130_fd_sc_hd__sdfxtp_1
*I *321:CLK I *D sky130_fd_sc_hd__sdfxtp_1
*I *318:CLK I *D sky130_fd_sc_hd__sdfxtp_1
*I *315:CLK I *D sky130_fd_sc_hd__dfrtp_4
*I *317:CLK I *D sky130_fd_sc_hd__sdfxtp_1
*I *322:CLK I *D sky130_fd_sc_hd__sdfxtp_1
*I *319:CLK I *D sky130_fd_sc_hd__sdfxtp_1
*I *306:Y O *D sky130_fd_sc_hd__clkinv_2
*CAP
1 *320:CLK 0.000318074
2 *323:CLK 4.76786e-05
3 *324:CLK 4.33506e-05
4 *321:CLK 4.19971e-05
5 *318:CLK 4.19971e-05
6 *315:CLK 0
7 *317:CLK 0
8 *322:CLK 0.000308421
9 *319:CLK 0.000151787
10 *306:Y 0.000419507
11 *27:81 0.000627803
12 *27:72 0.000593148
13 *27:63 0.000629105
14 *27:54 0.000645082
15 *27:28 0.000760028
16 *27:24 0.000877632
17 *27:11 0.00113334
18 *27:8 0.00127876
19 *320:CLK *320:D 6.72766e-05
20 *321:CLK *32:33 9.83442e-05
21 *322:CLK *322:D 0.000141734
22 *27:8 *307:D 0
23 *27:8 *31:33 3.08664e-05
24 *27:11 *315:D 2.59355e-05
25 *27:24 *308:D 2.23226e-05
26 *27:24 *311:D 4.43106e-05
27 *27:24 *319:D 5.39751e-05
28 *27:24 *30:7 0.000226867
29 *27:54 *307:D 0
30 *27:54 *315:RESET_B 0
31 *27:54 *34:32 0
32 *27:81 *323:D 7.27263e-05
33 module_data_in[4] *27:54 0
34 *314:GATE *322:CLK 0.000395427
35 *314:GATE *27:28 0.000395427
36 *320:SCD *320:CLK 9.83442e-05
37 *321:SCD *324:CLK 5.06736e-05
38 *323:SCD *323:CLK 9.83442e-05
39 *324:SCE *27:72 3.58978e-05
40 *324:SCE *27:81 2.26675e-05
41 *3:14 *27:28 0.000113043
42 *16:15 *318:CLK 9.83442e-05
43 *17:15 *320:CLK 0
44 *19:12 *320:CLK 0
45 *23:41 *27:24 9.11048e-06
*RES
1 *306:Y *27:8 20.8357 
2 *27:8 *27:11 12.8393 
3 *27:11 *27:24 29.0714 
4 *27:24 *27:28 11.6607 
5 *27:28 *319:CLK 15.9786 
6 *27:28 *322:CLK 20.9607 
7 *27:24 *317:CLK 9.3 
8 *27:11 *315:CLK 9.3 
9 *27:8 *27:54 4.98214 
10 *27:54 *318:CLK 14.7464 
11 *27:54 *27:63 4.98214 
12 *27:63 *321:CLK 14.7464 
13 *27:63 *27:72 4.98214 
14 *27:72 *324:CLK 14.7464 
15 *27:72 *27:81 4.98214 
16 *27:81 *323:CLK 14.7464 
17 *27:81 *320:CLK 19.7286 
*END

*D_NET *28 0.000544207
*CONN
*I *315:RESET_B I *D sky130_fd_sc_hd__dfrtp_4
*I *316:HI O *D sky130_fd_sc_hd__conb_1
*CAP
1 *315:RESET_B 0.000192872
2 *316:HI 0.000192872
3 *315:RESET_B *307:D 2.11419e-05
4 module_data_in[4] *315:RESET_B 0.000125241
5 module_data_in[6] *315:RESET_B 1.2081e-05
6 *27:54 *315:RESET_B 0
*RES
1 *316:HI *315:RESET_B 21.3 
*END

*D_NET *29 0.00375939
*CONN
*I *318:D I *D sky130_fd_sc_hd__sdfxtp_1
*I *307:D I *D sky130_fd_sc_hd__dlxtp_1
*I *317:Q O *D sky130_fd_sc_hd__sdfxtp_1
*CAP
1 *318:D 3.34353e-05
2 *307:D 0.00140122
3 *317:Q 0.000225022
4 *29:8 0.00165968
5 module_data_in[4] *307:D 0.000292063
6 *315:RESET_B *307:D 2.11419e-05
7 *15:15 *29:8 5.018e-05
8 *16:15 *318:D 7.66493e-05
9 *27:8 *307:D 0
10 *27:54 *307:D 0
*RES
1 *317:Q *29:8 17.1036 
2 *29:8 *307:D 42.5261 
3 *29:8 *318:D 14.5411 
*END

*D_NET *30 0.00368167
*CONN
*I *319:D I *D sky130_fd_sc_hd__sdfxtp_1
*I *308:D I *D sky130_fd_sc_hd__dlxtp_1
*I *318:Q O *D sky130_fd_sc_hd__sdfxtp_1
*CAP
1 *319:D 0.000459839
2 *308:D 0.000837996
3 *318:Q 0.000246523
4 *30:7 0.00154436
5 *319:D *32:14 6.7e-06
6 *319:SCE *319:D 8.04728e-05
7 *3:14 *319:D 8.14853e-05
8 *23:41 *30:7 9.83442e-05
9 *23:97 *319:D 2.27918e-05
10 *27:24 *308:D 2.23226e-05
11 *27:24 *319:D 5.39751e-05
12 *27:24 *30:7 0.000226867
*RES
1 *318:Q *30:7 17.2107 
2 *30:7 *308:D 36.0857 
3 *30:7 *319:D 22.2241 
*END

*D_NET *31 0.00883619
*CONN
*I *309:D I *D sky130_fd_sc_hd__dlxtp_1
*I *320:D I *D sky130_fd_sc_hd__sdfxtp_1
*I *319:Q O *D sky130_fd_sc_hd__sdfxtp_1
*CAP
1 *309:D 0
2 *320:D 0.000929221
3 *319:Q 0.000673887
4 *31:33 0.00105831
5 *31:5 0.00266141
6 *31:5 *32:33 3.9141e-06
7 *31:33 *32:33 0.000445877
8 module_data_in[2] *31:33 0.000330626
9 module_data_in[3] *31:33 0.00011195
10 module_data_in[5] *31:33 0.000343585
11 module_data_in[6] *320:D 0.000238447
12 module_data_in[6] *31:33 0.000668288
13 *320:CLK *320:D 6.72766e-05
14 *320:SCD *320:D 0.000172639
15 *324:SCE *31:5 7.34825e-06
16 *16:15 *320:D 5.15966e-05
17 *16:15 *31:33 0.000521347
18 *17:15 *320:D 3.14963e-05
19 *17:15 *31:5 4.25569e-05
20 *19:12 *320:D 0
21 *21:10 *320:D 0.000321145
22 *22:10 *320:D 0.000124406
23 *27:8 *31:33 3.08664e-05
*RES
1 *319:Q *31:5 16.8179 
2 *31:5 *320:D 45.9027 
3 *31:5 *31:33 40.7679 
4 *31:33 *309:D 9.3 
*END

*D_NET *32 0.00874843
*CONN
*I *321:D I *D sky130_fd_sc_hd__sdfxtp_1
*I *310:D I *D sky130_fd_sc_hd__dlxtp_1
*I *320:Q O *D sky130_fd_sc_hd__sdfxtp_1
*CAP
1 *321:D 1.181e-05
2 *310:D 0
3 *320:Q 0.00168698
4 *32:33 0.00169358
5 *32:19 0.00177181
6 *32:14 0.00175339
7 *32:14 *313:D 7.1221e-05
8 module_data_in[2] *32:33 5.33277e-05
9 module_data_in[3] *32:33 0.000192748
10 *314:GATE *32:14 0
11 *319:D *32:14 6.7e-06
12 *319:SCE *32:14 1.1146e-05
13 *321:CLK *32:33 9.83442e-05
14 *321:SCD *32:14 2.51903e-05
15 *321:SCD *32:19 5.65955e-05
16 *321:SCE *32:19 1.10868e-05
17 *321:SCE *32:33 2.90659e-05
18 *324:SCE *32:14 0.000191801
19 *15:15 *32:33 0.000205979
20 *16:15 *32:33 0.000109566
21 *17:15 *32:14 0.000304836
22 *23:71 *32:19 1.34631e-05
23 *31:5 *32:33 3.9141e-06
24 *31:33 *32:33 0.000445877
*RES
1 *320:Q *32:14 48.3536 
2 *32:14 *32:19 5.99107 
3 *32:19 *32:33 45.9018 
4 *32:33 *310:D 9.3 
5 *32:19 *321:D 9.75089 
*END

*D_NET *33 0.00574036
*CONN
*I *322:D I *D sky130_fd_sc_hd__sdfxtp_1
*I *311:D I *D sky130_fd_sc_hd__dlxtp_1
*I *321:Q O *D sky130_fd_sc_hd__sdfxtp_1
*CAP
1 *322:D 0.000510928
2 *311:D 0.000834393
3 *321:Q 0.000477156
4 *33:7 0.00182248
5 *311:GATE *311:D 0.000160576
6 *314:GATE *311:D 0.000511908
7 *314:GATE *322:D 0.000652735
8 *319:SCE *33:7 2.03069e-05
9 *322:CLK *322:D 0.000141734
10 *322:SCE *322:D 4.02097e-06
11 *3:14 *311:D 2.82057e-05
12 *5:71 *311:D 0.000516031
13 *23:71 *33:7 1.55758e-05
14 *27:24 *311:D 4.43106e-05
*RES
1 *321:Q *33:7 19.2643 
2 *33:7 *311:D 32.4786 
3 *33:7 *322:D 25.5455 
*END

*D_NET *34 0.00588905
*CONN
*I *312:D I *D sky130_fd_sc_hd__dlxtp_1
*I *323:D I *D sky130_fd_sc_hd__sdfxtp_1
*I *322:Q O *D sky130_fd_sc_hd__sdfxtp_1
*CAP
1 *312:D 0.000109877
2 *323:D 0.000126362
3 *322:Q 0.000169173
4 *34:32 0.00201313
5 *34:5 0.00219879
6 data_out *34:32 0.000148312
7 module_data_in[4] *34:32 0.000143375
8 module_data_in[5] *34:32 0
9 *312:GATE *312:D 5.65955e-05
10 *322:SCD *34:5 3.05522e-05
11 *323:SCD *323:D 1.37693e-05
12 *324:SCD *34:5 0.000137179
13 *324:SCD *34:32 0.000351227
14 *17:15 *323:D 0.000121564
15 *19:12 *34:32 0.000196423
16 *27:54 *34:32 0
17 *27:81 *323:D 7.27263e-05
*RES
1 *322:Q *34:5 11.4786 
2 *34:5 *323:D 21.5991 
3 *34:5 *34:32 49.9643 
4 *34:32 *312:D 11.0679 
*END

*D_NET *35 0.0035953
*CONN
*I *324:D I *D sky130_fd_sc_hd__sdfxtp_1
*I *313:D I *D sky130_fd_sc_hd__dlxtp_1
*I *323:Q O *D sky130_fd_sc_hd__sdfxtp_1
*CAP
1 *324:D 0.000235527
2 *313:D 0.000959694
3 *323:Q 0.000518022
4 *35:12 0.00171324
5 *321:SCD *324:D 1.59935e-05
6 *23:31 *313:D 5.33005e-05
7 *23:109 *35:12 2.83019e-05
8 *32:14 *313:D 7.1221e-05
*RES
1 *323:Q *35:12 21.3804 
2 *35:12 *313:D 31.8804 
3 *35:12 *324:D 17.425 
*END

*D_NET *36 0.00305028
*CONN
*I *314:D I *D sky130_fd_sc_hd__dlxtp_1
*I *315:D I *D sky130_fd_sc_hd__dfrtp_4
*I *324:Q O *D sky130_fd_sc_hd__sdfxtp_1
*CAP
1 *314:D 0.000462658
2 *315:D 0.000762527
3 *324:Q 9.10629e-05
4 *36:7 0.00131625
5 *23:31 *315:D 0.000391849
6 *27:11 *315:D 2.59355e-05
*RES
1 *324:Q *36:7 14.7464 
2 *36:7 *315:D 27.8179 
3 *36:7 *314:D 21.8179 
*END
