*SPEF "ieee 1481-1999"
*DESIGN "scanchain"
*DATE "11:11:11 Fri 11 11, 1111"
*VENDOR "OpenRCX"
*PROGRAM "Parallel Extraction"
*VERSION "1.0"
*DESIGN_FLOW "NAME_SCOPE LOCAL" "PIN_CAP NONE"
*DIVIDER /
*DELIMITER :
*BUS_DELIMITER []
*T_UNIT 1 NS
*C_UNIT 1 PF
*R_UNIT 1 OHM
*L_UNIT 1 HENRY

*NAME_MAP
*1 clk_in
*2 clk_out
*3 data_in
*4 data_out
*5 latch_enable_in
*6 latch_enable_out
*7 module_data_in[0]
*8 module_data_in[1]
*9 module_data_in[2]
*10 module_data_in[3]
*11 module_data_in[4]
*12 module_data_in[5]
*13 module_data_in[6]
*14 module_data_in[7]
*15 module_data_out[0]
*16 module_data_out[1]
*17 module_data_out[2]
*18 module_data_out[3]
*19 module_data_out[4]
*20 module_data_out[5]
*21 module_data_out[6]
*22 module_data_out[7]
*23 scan_select_in
*24 scan_select_out
*27 clk
*28 net1
*29 scan_data_in\[1\]
*30 scan_data_in\[2\]
*31 scan_data_in\[3\]
*32 scan_data_in\[4\]
*33 scan_data_in\[5\]
*34 scan_data_in\[6\]
*35 scan_data_in\[7\]
*36 scan_data_out\[7\]
*37 FILLER_0_15
*38 FILLER_0_27
*39 FILLER_0_29
*40 FILLER_0_3
*41 FILLER_0_37
*42 FILLER_10_15
*43 FILLER_10_27
*44 FILLER_10_29
*45 FILLER_10_3
*46 FILLER_10_37
*47 FILLER_11_12
*48 FILLER_11_3
*49 FILLER_11_36
*50 FILLER_12_11
*51 FILLER_12_26
*52 FILLER_12_29
*53 FILLER_12_3
*54 FILLER_12_37
*55 FILLER_13_20
*56 FILLER_13_3
*57 FILLER_13_36
*58 FILLER_13_7
*59 FILLER_14_11
*60 FILLER_14_26
*61 FILLER_14_29
*62 FILLER_14_3
*63 FILLER_14_37
*64 FILLER_15_11
*65 FILLER_15_3
*66 FILLER_15_34
*67 FILLER_16_11
*68 FILLER_16_26
*69 FILLER_16_29
*70 FILLER_16_3
*71 FILLER_16_37
*72 FILLER_17_15
*73 FILLER_17_23
*74 FILLER_17_3
*75 FILLER_17_36
*76 FILLER_18_11
*77 FILLER_18_26
*78 FILLER_18_29
*79 FILLER_18_3
*80 FILLER_18_37
*81 FILLER_19_3
*82 FILLER_19_36
*83 FILLER_1_15
*84 FILLER_1_27
*85 FILLER_1_3
*86 FILLER_1_35
*87 FILLER_20_26
*88 FILLER_20_29
*89 FILLER_20_3
*90 FILLER_20_37
*91 FILLER_21_11
*92 FILLER_21_3
*93 FILLER_21_36
*94 FILLER_22_26
*95 FILLER_22_29
*96 FILLER_22_3
*97 FILLER_22_37
*98 FILLER_23_3
*99 FILLER_23_33
*100 FILLER_23_37
*101 FILLER_23_9
*102 FILLER_24_26
*103 FILLER_24_29
*104 FILLER_24_3
*105 FILLER_24_34
*106 FILLER_25_11
*107 FILLER_25_3
*108 FILLER_25_36
*109 FILLER_26_21
*110 FILLER_26_27
*111 FILLER_26_29
*112 FILLER_26_3
*113 FILLER_26_37
*114 FILLER_26_9
*115 FILLER_27_3
*116 FILLER_27_36
*117 FILLER_28_15
*118 FILLER_28_27
*119 FILLER_28_29
*120 FILLER_28_3
*121 FILLER_28_37
*122 FILLER_29_15
*123 FILLER_29_27
*124 FILLER_29_3
*125 FILLER_29_35
*126 FILLER_2_15
*127 FILLER_2_27
*128 FILLER_2_29
*129 FILLER_2_3
*130 FILLER_2_37
*131 FILLER_30_15
*132 FILLER_30_27
*133 FILLER_30_29
*134 FILLER_30_3
*135 FILLER_30_37
*136 FILLER_31_15
*137 FILLER_31_27
*138 FILLER_31_3
*139 FILLER_31_35
*140 FILLER_32_15
*141 FILLER_32_27
*142 FILLER_32_29
*143 FILLER_32_3
*144 FILLER_32_37
*145 FILLER_33_15
*146 FILLER_33_27
*147 FILLER_33_3
*148 FILLER_33_35
*149 FILLER_34_15
*150 FILLER_34_27
*151 FILLER_34_29
*152 FILLER_34_3
*153 FILLER_34_37
*154 FILLER_35_15
*155 FILLER_35_27
*156 FILLER_35_3
*157 FILLER_35_35
*158 FILLER_36_15
*159 FILLER_36_27
*160 FILLER_36_29
*161 FILLER_36_3
*162 FILLER_36_37
*163 FILLER_37_15
*164 FILLER_37_27
*165 FILLER_37_3
*166 FILLER_37_35
*167 FILLER_38_15
*168 FILLER_38_27
*169 FILLER_38_29
*170 FILLER_38_3
*171 FILLER_38_37
*172 FILLER_39_15
*173 FILLER_39_27
*174 FILLER_39_29
*175 FILLER_39_3
*176 FILLER_39_37
*177 FILLER_3_15
*178 FILLER_3_27
*179 FILLER_3_3
*180 FILLER_3_35
*181 FILLER_4_15
*182 FILLER_4_27
*183 FILLER_4_29
*184 FILLER_4_3
*185 FILLER_4_37
*186 FILLER_5_15
*187 FILLER_5_27
*188 FILLER_5_3
*189 FILLER_5_35
*190 FILLER_6_15
*191 FILLER_6_27
*192 FILLER_6_29
*193 FILLER_6_3
*194 FILLER_6_37
*195 FILLER_7_15
*196 FILLER_7_27
*197 FILLER_7_3
*198 FILLER_7_35
*199 FILLER_8_15
*200 FILLER_8_27
*201 FILLER_8_29
*202 FILLER_8_3
*203 FILLER_8_37
*204 FILLER_9_15
*205 FILLER_9_27
*206 FILLER_9_3
*207 FILLER_9_35
*208 PHY_0
*209 PHY_1
*210 PHY_10
*211 PHY_11
*212 PHY_12
*213 PHY_13
*214 PHY_14
*215 PHY_15
*216 PHY_16
*217 PHY_17
*218 PHY_18
*219 PHY_19
*220 PHY_2
*221 PHY_20
*222 PHY_21
*223 PHY_22
*224 PHY_23
*225 PHY_24
*226 PHY_25
*227 PHY_26
*228 PHY_27
*229 PHY_28
*230 PHY_29
*231 PHY_3
*232 PHY_30
*233 PHY_31
*234 PHY_32
*235 PHY_33
*236 PHY_34
*237 PHY_35
*238 PHY_36
*239 PHY_37
*240 PHY_38
*241 PHY_39
*242 PHY_4
*243 PHY_40
*244 PHY_41
*245 PHY_42
*246 PHY_43
*247 PHY_44
*248 PHY_45
*249 PHY_46
*250 PHY_47
*251 PHY_48
*252 PHY_49
*253 PHY_5
*254 PHY_50
*255 PHY_51
*256 PHY_52
*257 PHY_53
*258 PHY_54
*259 PHY_55
*260 PHY_56
*261 PHY_57
*262 PHY_58
*263 PHY_59
*264 PHY_6
*265 PHY_60
*266 PHY_61
*267 PHY_62
*268 PHY_63
*269 PHY_64
*270 PHY_65
*271 PHY_66
*272 PHY_67
*273 PHY_68
*274 PHY_69
*275 PHY_7
*276 PHY_70
*277 PHY_71
*278 PHY_72
*279 PHY_73
*280 PHY_74
*281 PHY_75
*282 PHY_76
*283 PHY_77
*284 PHY_78
*285 PHY_79
*286 PHY_8
*287 PHY_9
*288 TAP_100
*289 TAP_80
*290 TAP_81
*291 TAP_82
*292 TAP_83
*293 TAP_84
*294 TAP_85
*295 TAP_86
*296 TAP_87
*297 TAP_88
*298 TAP_89
*299 TAP_90
*300 TAP_91
*301 TAP_92
*302 TAP_93
*303 TAP_94
*304 TAP_95
*305 TAP_96
*306 TAP_97
*307 TAP_98
*308 TAP_99
*309 buf_clk
*310 buf_clk_int
*311 latch\[0\]
*312 latch\[1\]
*313 latch\[2\]
*314 latch\[3\]
*315 latch\[4\]
*316 latch\[5\]
*317 latch\[6\]
*318 latch\[7\]
*319 out_flop
*320 out_flop_1
*321 scan_flop\[0\]
*322 scan_flop\[1\]
*323 scan_flop\[2\]
*324 scan_flop\[3\]
*325 scan_flop\[4\]
*326 scan_flop\[5\]
*327 scan_flop\[6\]
*328 scan_flop\[7\]
*329 through_buffers\[0\]
*330 through_buffers\[1\]

*PORTS
clk_in I
clk_out O
data_in I
data_out O
latch_enable_in I
latch_enable_out O
module_data_in[0] O
module_data_in[1] O
module_data_in[2] O
module_data_in[3] O
module_data_in[4] O
module_data_in[5] O
module_data_in[6] O
module_data_in[7] O
module_data_out[0] I
module_data_out[1] I
module_data_out[2] I
module_data_out[3] I
module_data_out[4] I
module_data_out[5] I
module_data_out[6] I
module_data_out[7] I
scan_select_in I
scan_select_out O

*D_NET *1 0.00337656
*CONN
*P clk_in I
*I *309:A I *D sky130_fd_sc_hd__clkinv_4
*CAP
1 clk_in 0.00155349
2 *309:A 0.00155349
3 *309:A *3:23 0.000269583
*RES
1 clk_in *309:A 47.5839 
*END

*D_NET *2 0.00892439
*CONN
*P clk_out O
*I *310:A I *D sky130_fd_sc_hd__clkinv_2
*I *309:Y O *D sky130_fd_sc_hd__clkinv_4
*CAP
1 clk_out 0.00212849
2 *310:A 0
3 *309:Y 0.00185782
4 *2:9 0.00216937
5 *2:6 0.00189869
6 clk_out data_out 0
7 clk_out scan_select_out 0
8 clk_out *27:8 7.57394e-05
9 *2:6 scan_select_out 0
10 *2:6 *324:SCE 0.00014544
11 *2:6 *5:28 6.12017e-05
12 *2:6 *5:35 0.000197045
13 *2:6 *5:49 6.8897e-05
14 *2:6 *23:20 0
15 *2:6 *23:96 8.38808e-05
16 *2:6 *27:21 9.03121e-05
17 *2:6 *32:34 0.000102646
18 *2:9 *27:8 4.48647e-05
*RES
1 *309:Y *2:6 49.4429 
2 *2:6 *2:9 5.44643 
3 *2:9 clk_out 45.561 
4 *2:9 *310:A 9.3 
*END

*D_NET *3 0.00575089
*CONN
*P data_in I
*I *321:D I *D sky130_fd_sc_hd__sdfxtp_1
*CAP
1 data_in 0.00153868
2 *321:D 0.000636387
3 *3:23 0.00217507
4 *321:D *311:D 0.000194045
5 *321:D *321:CLK 0.00016875
6 *321:D *5:28 0.000125599
7 *321:D *15:33 5.54067e-05
8 *321:D *23:32 7.06999e-05
9 *321:D *29:7 5.48721e-05
10 *321:D *32:34 0.000109239
11 *3:23 *311:D 0.000121842
12 *3:23 *313:GATE 0.000114617
13 *3:23 *314:GATE 2.79421e-05
14 *3:23 *5:49 8.81599e-05
15 *309:A *3:23 0.000269583
*RES
1 data_in *3:23 48.6596 
2 *3:23 *321:D 33.1125 
*END

*D_NET *4 0.00464046
*CONN
*P data_out O
*I *319:Q O *D sky130_fd_sc_hd__dfrtp_4
*CAP
1 data_out 0.000623504
2 *319:Q 0.00150794
3 *4:12 0.00213145
4 *4:12 *319:CLK 6.85998e-05
5 *4:12 *328:SCE 0.000308967
6 clk_out data_out 0
*RES
1 *319:Q *4:12 46.1393 
2 *4:12 data_out 16.3911 
*END

*D_NET *5 0.00958168
*CONN
*P latch_enable_in I
*I *318:GATE I *D sky130_fd_sc_hd__dlxtp_1
*I *317:GATE I *D sky130_fd_sc_hd__dlxtp_1
*I *329:A I *D sky130_fd_sc_hd__buf_4
*I *316:GATE I *D sky130_fd_sc_hd__dlxtp_1
*I *314:GATE I *D sky130_fd_sc_hd__dlxtp_1
*I *315:GATE I *D sky130_fd_sc_hd__dlxtp_1
*I *312:GATE I *D sky130_fd_sc_hd__dlxtp_1
*I *313:GATE I *D sky130_fd_sc_hd__dlxtp_1
*I *311:GATE I *D sky130_fd_sc_hd__dlxtp_1
*CAP
1 latch_enable_in 0.000512317
2 *318:GATE 0.00027533
3 *317:GATE 0
4 *329:A 0.00058934
5 *316:GATE 1.27355e-05
6 *314:GATE 0.000114955
7 *315:GATE 0.000292334
8 *312:GATE 0
9 *313:GATE 0.000376606
10 *311:GATE 0
11 *5:92 0.000667913
12 *5:87 0.000453396
13 *5:49 0.000608893
14 *5:43 0.000601614
15 *5:35 0.000365619
16 *5:28 0.000657844
17 *5:17 0.000409493
18 *5:11 0.000754304
19 *313:GATE *312:D 1.00399e-05
20 *315:GATE *311:D 5.49489e-05
21 *315:GATE *7:7 0.00012306
22 *315:GATE *23:20 0.000163631
23 *316:GATE *23:32 2.84109e-05
24 *316:GATE *34:19 4.25176e-05
25 *318:GATE *30:34 4.82865e-05
26 *329:A *322:D 0.000412569
27 *329:A *323:SCE 7.6997e-05
28 *329:A *324:SCE 0.000127547
29 *329:A *27:21 5.49489e-05
30 *329:A *35:47 1.69252e-05
31 *5:11 *34:19 9.36119e-05
32 *5:17 *322:D 0.000194804
33 *5:17 *23:32 4.58194e-05
34 *5:17 *34:19 9.58126e-05
35 *5:28 *311:D 1.30594e-05
36 *5:28 *322:D 0.000215722
37 *5:28 *30:34 2.34969e-05
38 *5:28 *32:34 0.000139215
39 *5:35 *23:20 3.22897e-05
40 *5:43 *23:20 2.07394e-05
41 *5:49 *311:D 1.62621e-05
42 *5:92 *321:CLK 3.00436e-05
43 *5:92 *322:D 8.6332e-05
44 *5:92 *30:34 3.84349e-05
45 *321:D *5:28 0.000125599
46 *2:6 *5:28 6.12017e-05
47 *2:6 *5:35 0.000197045
48 *2:6 *5:49 6.8897e-05
49 *3:23 *313:GATE 0.000114617
50 *3:23 *314:GATE 2.79421e-05
51 *3:23 *5:49 8.81599e-05
*RES
1 latch_enable_in *5:11 14.8375 
2 *5:11 *5:17 12.5 
3 *5:17 *5:28 24.4643 
4 *5:28 *5:35 14.2679 
5 *5:35 *311:GATE 9.3 
6 *5:35 *5:43 1.375 
7 *5:43 *5:49 13.625 
8 *5:49 *313:GATE 25.3893 
9 *5:49 *312:GATE 9.3 
10 *5:43 *315:GATE 15.7286 
11 *5:28 *314:GATE 11.0679 
12 *5:17 *316:GATE 9.83571 
13 *5:11 *5:87 1.35714 
14 *5:87 *5:92 11.25 
15 *5:92 *329:A 39.05 
16 *5:92 *317:GATE 9.3 
17 *5:87 *318:GATE 13.5321 
*END

*D_NET *6 0.00122036
*CONN
*P latch_enable_out O
*I *329:X O *D sky130_fd_sc_hd__buf_4
*CAP
1 latch_enable_out 0.000398303
2 *329:X 0.000398303
3 latch_enable_out *27:21 4.96113e-05
4 latch_enable_out *32:7 0.000180959
5 latch_enable_out *34:19 0.000193189
*RES
1 *329:X latch_enable_out 23.7089 
*END

*D_NET *7 0.00650044
*CONN
*P module_data_in[0] O
*I *311:Q O *D sky130_fd_sc_hd__dlxtp_1
*CAP
1 module_data_in[0] 0.00151867
2 *311:Q 0.000856513
3 *7:7 0.00237518
4 module_data_in[0] module_data_in[1] 0
5 module_data_in[0] module_data_in[2] 0.00125681
6 module_data_in[0] module_data_in[4] 0.000215202
7 module_data_in[0] module_data_in[5] 3.96623e-05
8 *7:7 module_data_in[4] 8.94053e-05
9 *7:7 *33:51 2.59355e-05
10 *315:GATE *7:7 0.00012306
*RES
1 *311:Q *7:7 24.6036 
2 *7:7 module_data_in[0] 39.8005 
*END

*D_NET *8 0.00434407
*CONN
*P module_data_in[1] O
*I *312:Q O *D sky130_fd_sc_hd__dlxtp_1
*CAP
1 module_data_in[1] 0.00217203
2 *312:Q 0.00217203
3 module_data_in[1] module_data_in[2] 0
4 module_data_in[1] module_data_in[3] 0
5 module_data_in[0] module_data_in[1] 0
*RES
1 *312:Q module_data_in[1] 47.3221 
*END

*D_NET *9 0.00325451
*CONN
*P module_data_in[2] O
*I *313:Q O *D sky130_fd_sc_hd__dlxtp_1
*CAP
1 module_data_in[2] 0.000916178
2 *313:Q 0.000916178
3 module_data_in[2] module_data_in[4] 0.000165345
4 module_data_in[0] module_data_in[2] 0.00125681
5 module_data_in[1] module_data_in[2] 0
*RES
1 *313:Q module_data_in[2] 37.1541 
*END

*D_NET *10 0.00345321
*CONN
*P module_data_in[3] O
*I *314:Q O *D sky130_fd_sc_hd__dlxtp_1
*CAP
1 module_data_in[3] 0.00169988
2 *314:Q 0.00169988
3 module_data_in[3] *23:20 4.20588e-05
4 module_data_in[3] *31:51 1.13963e-05
5 module_data_in[1] module_data_in[3] 0
*RES
1 *314:Q module_data_in[3] 37.5355 
*END

*D_NET *11 0.00160244
*CONN
*P module_data_in[4] O
*I *315:Q O *D sky130_fd_sc_hd__dlxtp_1
*CAP
1 module_data_in[4] 0.000544451
2 *315:Q 0.000544451
3 module_data_in[4] module_data_in[5] 4.35849e-05
4 module_data_in[0] module_data_in[4] 0.000215202
5 module_data_in[2] module_data_in[4] 0.000165345
6 *7:7 module_data_in[4] 8.94053e-05
*RES
1 *315:Q module_data_in[4] 28.0112 
*END

*D_NET *12 0.00254729
*CONN
*P module_data_in[5] O
*I *316:Q O *D sky130_fd_sc_hd__dlxtp_1
*CAP
1 module_data_in[5] 0.00119287
2 *316:Q 0.00119287
3 module_data_in[5] module_data_in[6] 6.92955e-05
4 module_data_in[5] *23:32 9.00281e-06
5 module_data_in[0] module_data_in[5] 3.96623e-05
6 module_data_in[4] module_data_in[5] 4.35849e-05
*RES
1 *316:Q module_data_in[5] 33.1547 
*END

*D_NET *13 0.00199612
*CONN
*P module_data_in[6] O
*I *317:Q O *D sky130_fd_sc_hd__dlxtp_1
*CAP
1 module_data_in[6] 0.000881003
2 *317:Q 0.000881003
3 module_data_in[6] module_data_in[7] 0.000164817
4 module_data_in[5] module_data_in[6] 6.92955e-05
*RES
1 *317:Q module_data_in[6] 32.1535 
*END

*D_NET *14 0.00106632
*CONN
*P module_data_in[7] O
*I *318:Q O *D sky130_fd_sc_hd__dlxtp_1
*CAP
1 module_data_in[7] 0.000450751
2 *318:Q 0.000450751
3 module_data_in[6] module_data_in[7] 0.000164817
*RES
1 *318:Q module_data_in[7] 22.8505 
*END

*D_NET *15 0.00408481
*CONN
*P module_data_out[0] I
*I *321:SCD I *D sky130_fd_sc_hd__sdfxtp_1
*CAP
1 module_data_out[0] 0.001634
2 *321:SCD 0
3 *15:33 0.001634
4 *15:33 *318:D 0
5 *15:33 *321:CLK 9.83442e-05
6 *15:33 *322:SCD 0.000162577
7 *15:33 *323:SCD 0.000149959
8 *15:33 *324:D 0.00010643
9 *15:33 *30:9 0.000149966
10 *15:33 *30:34 9.41278e-05
11 *321:D *15:33 5.54067e-05
*RES
1 module_data_out[0] *15:33 41.9466 
2 *15:33 *321:SCD 9.3 
*END

*D_NET *16 0.00345506
*CONN
*P module_data_out[1] I
*I *322:SCD I *D sky130_fd_sc_hd__sdfxtp_1
*CAP
1 module_data_out[1] 0.00110751
2 *322:SCD 0.00110751
3 *322:SCD *322:CLK 0.000183477
4 *322:SCD *323:SCE 2.59355e-05
5 *322:SCD *324:D 0.000312769
6 *322:SCD *17:39 0.000392856
7 *322:SCD *19:13 0.000116615
8 *322:SCD *35:47 4.58194e-05
9 *15:33 *322:SCD 0.000162577
*RES
1 module_data_out[1] *322:SCD 37.126 
*END

*D_NET *17 0.0044512
*CONN
*P module_data_out[2] I
*I *323:SCD I *D sky130_fd_sc_hd__sdfxtp_1
*CAP
1 module_data_out[2] 0.00171279
2 *323:SCD 8.71217e-05
3 *17:39 0.00179991
4 *17:39 *18:17 0.000140223
5 *17:39 *33:51 0.000168334
6 *17:39 *36:15 0
7 *322:SCD *17:39 0.000392856
8 *15:33 *323:SCD 0.000149959
*RES
1 module_data_out[2] *17:39 48.7476 
2 *17:39 *323:SCD 15.7464 
*END

*D_NET *18 0.00429672
*CONN
*P module_data_out[3] I
*I *324:SCD I *D sky130_fd_sc_hd__sdfxtp_1
*CAP
1 module_data_out[3] 0.0013587
2 *324:SCD 0
3 *18:17 0.0013587
4 *18:17 *326:SCD 0
5 *18:17 *327:SCD 6.05161e-06
6 *18:17 *19:13 0.00103543
7 *18:17 *32:7 0.000279867
8 *18:17 *33:51 0.000117757
9 *17:39 *18:17 0.000140223
*RES
1 module_data_out[3] *18:17 45.3362 
2 *18:17 *324:SCD 9.3 
*END

*D_NET *19 0.00588764
*CONN
*P module_data_out[4] I
*I *325:SCD I *D sky130_fd_sc_hd__sdfxtp_1
*CAP
1 module_data_out[4] 0.00174091
2 *325:SCD 0
3 *19:13 0.00174091
4 *19:13 *326:D 7.57312e-05
5 *19:13 *326:SCD 0.000216546
6 *19:13 *22:13 0.000961491
7 *322:SCD *19:13 0.000116615
8 *18:17 *19:13 0.00103543
*RES
1 module_data_out[4] *19:13 45.8726 
2 *19:13 *325:SCD 9.3 
*END

*D_NET *20 0.00490821
*CONN
*P module_data_out[5] I
*I *326:SCD I *D sky130_fd_sc_hd__sdfxtp_1
*CAP
1 module_data_out[5] 0.00155186
2 *326:SCD 0.00155186
3 *326:SCD *21:14 0
4 *326:SCD *22:13 0.00140617
5 *326:SCD *34:11 0.000181776
6 *18:17 *326:SCD 0
7 *19:13 *326:SCD 0.000216546
*RES
1 module_data_out[5] *326:SCD 49.6423 
*END

*D_NET *21 0.00565311
*CONN
*P module_data_out[6] I
*I *327:SCD I *D sky130_fd_sc_hd__sdfxtp_1
*CAP
1 module_data_out[6] 0.00211667
2 *327:SCD 0.000655271
3 *21:14 0.00277194
4 *327:SCD *319:RESET_B 4.71644e-05
5 *327:SCD *328:D 5.60201e-05
6 *21:14 *22:13 0
7 *326:SCD *21:14 0
8 *18:17 *327:SCD 6.05161e-06
*RES
1 module_data_out[6] *21:14 40.4507 
2 *21:14 *327:SCD 19.6929 
*END

*D_NET *22 0.00599495
*CONN
*P module_data_out[7] I
*I *328:SCD I *D sky130_fd_sc_hd__sdfxtp_1
*CAP
1 module_data_out[7] 0.00175781
2 *328:SCD 0
3 *22:13 0.00175781
4 *22:13 *36:15 0.000111661
5 *326:SCD *22:13 0.00140617
6 *19:13 *22:13 0.000961491
7 *21:14 *22:13 0
*RES
1 module_data_out[7] *22:13 49.997 
2 *22:13 *328:SCD 9.3 
*END

*D_NET *23 0.0174166
*CONN
*P scan_select_in I
*I *321:SCE I *D sky130_fd_sc_hd__sdfxtp_1
*I *326:SCE I *D sky130_fd_sc_hd__sdfxtp_1
*I *328:SCE I *D sky130_fd_sc_hd__sdfxtp_1
*I *330:A I *D sky130_fd_sc_hd__buf_4
*I *327:SCE I *D sky130_fd_sc_hd__sdfxtp_1
*I *325:SCE I *D sky130_fd_sc_hd__sdfxtp_1
*I *323:SCE I *D sky130_fd_sc_hd__sdfxtp_1
*I *322:SCE I *D sky130_fd_sc_hd__sdfxtp_1
*I *324:SCE I *D sky130_fd_sc_hd__sdfxtp_1
*CAP
1 scan_select_in 0.00152223
2 *321:SCE 0.000105082
3 *326:SCE 6.15573e-05
4 *328:SCE 0.000417748
5 *330:A 0
6 *327:SCE 0
7 *325:SCE 0.000229189
8 *323:SCE 0.000410477
9 *322:SCE 0
10 *324:SCE 0.000264369
11 *23:101 0.000599082
12 *23:96 0.000237522
13 *23:85 0.000542129
14 *23:69 0.000787254
15 *23:51 0.000446311
16 *23:35 0.000623066
17 *23:32 0.00182623
18 *23:20 0.002997
19 *321:SCE *321:CLK 2.74484e-05
20 *321:SCE *31:51 2.84955e-05
21 *321:SCE *33:51 0.000117076
22 *323:SCE *322:CLK 5.76146e-05
23 *323:SCE *323:CLK 1.59373e-05
24 *323:SCE *30:9 4.08587e-06
25 *323:SCE *30:34 4.08587e-06
26 *323:SCE *35:47 8.00495e-05
27 *324:SCE *322:D 3.18572e-05
28 *324:SCE *27:21 0.000114561
29 *324:SCE *27:30 7.86132e-05
30 *324:SCE *32:7 0.000370943
31 *325:SCE *325:D 0.00013479
32 *325:SCE *27:15 0.00013921
33 *326:SCE *34:11 3.58258e-05
34 *328:SCE *328:D 6.03372e-05
35 *23:20 *311:D 1.83053e-05
36 *23:20 *31:51 0.000193622
37 *23:20 *33:51 9.76123e-05
38 *23:32 *321:CLK 1.81887e-05
39 *23:32 *30:34 3.06878e-06
40 *23:32 *32:34 0.000464542
41 *23:32 *33:51 0.000310495
42 *23:32 *34:19 0.000895483
43 *23:35 *322:CLK 9.49662e-05
44 *23:51 *322:CLK 2.93456e-05
45 *23:69 *325:D 3.15739e-05
46 *23:69 *32:34 9.26395e-05
47 *23:69 *34:19 0.000420773
48 *23:85 *325:D 7.80714e-06
49 *23:85 *327:CLK 7.57394e-05
50 *23:85 *27:15 0.000187883
51 *23:85 *34:11 3.95407e-07
52 *23:85 *34:19 0.000474756
53 *23:96 *319:CLK 5.89517e-05
54 *23:96 *328:CLK 1.0033e-05
55 *23:96 *34:11 0.000125599
56 *23:101 *326:CLK 0.000141734
57 *23:101 *27:73 9.66977e-05
58 *23:101 *34:11 1.47972e-05
59 module_data_in[3] *23:20 4.20588e-05
60 module_data_in[5] *23:32 9.00281e-06
61 *315:GATE *23:20 0.000163631
62 *316:GATE *23:32 2.84109e-05
63 *321:D *23:32 7.06999e-05
64 *322:SCD *323:SCE 2.59355e-05
65 *329:A *323:SCE 7.6997e-05
66 *329:A *324:SCE 0.000127547
67 *2:6 *324:SCE 0.00014544
68 *2:6 *23:20 0
69 *2:6 *23:96 8.38808e-05
70 *4:12 *328:SCE 0.000308967
71 *5:17 *23:32 4.58194e-05
72 *5:35 *23:20 3.22897e-05
73 *5:43 *23:20 2.07394e-05
*RES
1 scan_select_in *23:20 43.356 
2 *23:20 *23:32 42.5536 
3 *23:32 *23:35 8.32143 
4 *23:35 *324:SCE 26.6527 
5 *23:35 *23:51 0.5625 
6 *23:51 *322:SCE 9.3 
7 *23:51 *323:SCE 23.6929 
8 *23:32 *23:69 5.28571 
9 *23:69 *325:SCE 17.9741 
10 *23:69 *23:85 13.4375 
11 *23:85 *327:SCE 9.3 
12 *23:85 *23:96 12.4643 
13 *23:96 *330:A 9.3 
14 *23:96 *23:101 2.58929 
15 *23:101 *328:SCE 34.9339 
16 *23:101 *326:SCE 10.4563 
17 *23:20 *321:SCE 16.0098 
*END

*D_NET *24 0.00137555
*CONN
*P scan_select_out O
*I *330:X O *D sky130_fd_sc_hd__buf_4
*CAP
1 scan_select_out 0.000627471
2 *330:X 0.000627471
3 scan_select_out *27:8 0
4 scan_select_out *27:73 0.000120604
5 scan_select_out *34:19 0
6 clk_out scan_select_out 0
7 *2:6 scan_select_out 0
*RES
1 *330:X scan_select_out 27.3518 
*END

*D_NET *27 0.0120529
*CONN
*I *326:CLK I *D sky130_fd_sc_hd__sdfxtp_1
*I *328:CLK I *D sky130_fd_sc_hd__sdfxtp_1
*I *319:CLK I *D sky130_fd_sc_hd__dfrtp_4
*I *327:CLK I *D sky130_fd_sc_hd__sdfxtp_1
*I *325:CLK I *D sky130_fd_sc_hd__sdfxtp_1
*I *322:CLK I *D sky130_fd_sc_hd__sdfxtp_1
*I *323:CLK I *D sky130_fd_sc_hd__sdfxtp_1
*I *321:CLK I *D sky130_fd_sc_hd__sdfxtp_1
*I *324:CLK I *D sky130_fd_sc_hd__sdfxtp_1
*I *310:Y O *D sky130_fd_sc_hd__clkinv_2
*CAP
1 *326:CLK 2.74473e-05
2 *328:CLK 0.000378618
3 *319:CLK 0.000935703
4 *327:CLK 2.85542e-05
5 *325:CLK 0
6 *322:CLK 0.000263155
7 *323:CLK 4.98717e-05
8 *321:CLK 0.000751835
9 *324:CLK 0
10 *310:Y 0.000278235
11 *27:75 0.00131432
12 *27:73 0.000243
13 *27:32 0.000930385
14 *27:30 0.000526015
15 *27:21 0.000461589
16 *27:15 0.000569324
17 *27:10 0.000418136
18 *27:8 0.000641453
19 *319:CLK *319:D 4.38751e-06
20 *319:CLK *319:RESET_B 0.000173471
21 *319:CLK *34:11 0.000124083
22 *319:CLK *35:47 2.69955e-05
23 *321:CLK *312:D 8.1401e-05
24 *321:CLK *317:D 0.000197045
25 *321:CLK *30:34 0.000477071
26 *321:CLK *32:34 1.32056e-05
27 *322:CLK *322:D 3.3254e-05
28 *323:CLK *35:47 5.49489e-05
29 *326:CLK *34:11 6.78084e-05
30 *327:CLK *34:19 0.000141734
31 *27:10 *34:19 7.79781e-06
32 *27:15 *325:D 0.00012945
33 *27:15 *34:19 2.00751e-05
34 *27:21 *325:D 5.72546e-05
35 *27:21 *32:7 2.43875e-05
36 *27:21 *32:34 3.93545e-05
37 *27:30 *35:47 0.000172679
38 *27:32 *317:D 3.12359e-05
39 *27:32 *35:47 0.000199433
40 *27:73 *34:11 2.59355e-05
41 clk_out *27:8 7.57394e-05
42 latch_enable_out *27:21 4.96113e-05
43 scan_select_out *27:8 0
44 scan_select_out *27:73 0.000120604
45 *321:D *321:CLK 0.00016875
46 *321:SCE *321:CLK 2.74484e-05
47 *322:SCD *322:CLK 0.000183477
48 *323:SCE *322:CLK 5.76146e-05
49 *323:SCE *323:CLK 1.59373e-05
50 *324:SCE *27:21 0.000114561
51 *324:SCE *27:30 7.86132e-05
52 *325:SCE *27:15 0.00013921
53 *329:A *27:21 5.49489e-05
54 *2:6 *27:21 9.03121e-05
55 *2:9 *27:8 4.48647e-05
56 *4:12 *319:CLK 6.85998e-05
57 *5:92 *321:CLK 3.00436e-05
58 *15:33 *321:CLK 9.83442e-05
59 *23:32 *321:CLK 1.81887e-05
60 *23:35 *322:CLK 9.49662e-05
61 *23:51 *322:CLK 2.93456e-05
62 *23:85 *327:CLK 7.57394e-05
63 *23:85 *27:15 0.000187883
64 *23:96 *319:CLK 5.89517e-05
65 *23:96 *328:CLK 1.0033e-05
66 *23:101 *326:CLK 0.000141734
67 *23:101 *27:73 9.66977e-05
*RES
1 *310:Y *27:8 17.925 
2 *27:8 *27:10 2.55357 
3 *27:10 *27:15 10.8393 
4 *27:15 *27:21 15.7857 
5 *27:21 *324:CLK 9.3 
6 *27:21 *27:30 7.69643 
7 *27:30 *27:32 2.85714 
8 *27:32 *321:CLK 30.0321 
9 *27:32 *323:CLK 14.7464 
10 *27:30 *322:CLK 19.4071 
11 *27:15 *325:CLK 9.3 
12 *27:10 *327:CLK 15.1571 
13 *27:8 *27:73 8.73214 
14 *27:73 *27:75 4.5 
15 *27:75 *319:CLK 26.9429 
16 *27:75 *328:CLK 20.1393 
17 *27:73 *326:CLK 10.6571 
*END

*D_NET *28 0.000862265
*CONN
*I *319:RESET_B I *D sky130_fd_sc_hd__dfrtp_4
*I *320:HI O *D sky130_fd_sc_hd__conb_1
*CAP
1 *319:RESET_B 0.000259339
2 *320:HI 0.000259339
3 *319:RESET_B *319:D 2.51343e-06
4 *319:RESET_B *35:47 1.05379e-05
5 *319:RESET_B *36:15 0.000109901
6 *319:CLK *319:RESET_B 0.000173471
7 *327:SCD *319:RESET_B 4.71644e-05
*RES
1 *320:HI *319:RESET_B 22.7018 
*END

*D_NET *29 0.00311883
*CONN
*I *322:D I *D sky130_fd_sc_hd__sdfxtp_1
*I *311:D I *D sky130_fd_sc_hd__dlxtp_1
*I *321:Q O *D sky130_fd_sc_hd__sdfxtp_1
*CAP
1 *322:D 0.000590704
2 *311:D 0.000205038
3 *321:Q 1.22574e-05
4 *29:7 0.000807999
5 *29:7 *32:34 5.49544e-05
6 *315:GATE *311:D 5.49489e-05
7 *321:D *311:D 0.000194045
8 *321:D *29:7 5.48721e-05
9 *322:CLK *322:D 3.3254e-05
10 *324:SCE *322:D 3.18572e-05
11 *329:A *322:D 0.000412569
12 *3:23 *311:D 0.000121842
13 *5:17 *322:D 0.000194804
14 *5:28 *311:D 1.30594e-05
15 *5:28 *322:D 0.000215722
16 *5:49 *311:D 1.62621e-05
17 *5:92 *322:D 8.6332e-05
18 *23:20 *311:D 1.83053e-05
*RES
1 *321:Q *29:7 14.3357 
2 *29:7 *311:D 18.7107 
3 *29:7 *322:D 27.6661 
*END

*D_NET *30 0.00429954
*CONN
*I *323:D I *D sky130_fd_sc_hd__sdfxtp_1
*I *312:D I *D sky130_fd_sc_hd__dlxtp_1
*I *322:Q O *D sky130_fd_sc_hd__sdfxtp_1
*CAP
1 *323:D 0
2 *312:D 0.000576081
3 *322:Q 0.000203133
4 *30:34 0.00126908
5 *30:9 0.000896137
6 *312:D *32:34 0.000189675
7 *30:9 *324:D 7.54473e-05
8 *30:34 *317:D 0.000129979
9 *30:34 *34:19 2.59355e-05
10 *313:GATE *312:D 1.00399e-05
11 *318:GATE *30:34 4.82865e-05
12 *321:CLK *312:D 8.1401e-05
13 *321:CLK *30:34 0.000477071
14 *323:SCE *30:9 4.08587e-06
15 *323:SCE *30:34 4.08587e-06
16 *5:28 *30:34 2.34969e-05
17 *5:92 *30:34 3.84349e-05
18 *15:33 *30:9 0.000149966
19 *15:33 *30:34 9.41278e-05
20 *23:32 *30:34 3.06878e-06
*RES
1 *322:Q *30:9 22.4116 
2 *30:9 *30:34 49.1027 
3 *30:34 *312:D 28.2286 
4 *30:9 *323:D 9.3 
*END

*D_NET *31 0.00548458
*CONN
*I *313:D I *D sky130_fd_sc_hd__dlxtp_1
*I *324:D I *D sky130_fd_sc_hd__sdfxtp_1
*I *323:Q O *D sky130_fd_sc_hd__sdfxtp_1
*CAP
1 *313:D 0
2 *324:D 0.000567402
3 *323:Q 8.28575e-05
4 *31:51 0.00126473
5 *31:5 0.00191499
6 *324:D *318:D 0.000264903
7 *324:D *32:7 4.08587e-06
8 *324:D *35:47 9.06726e-05
9 *31:51 *33:51 0.000566765
10 module_data_in[3] *31:51 1.13963e-05
11 *321:SCE *31:51 2.84955e-05
12 *322:SCD *324:D 0.000312769
13 *15:33 *324:D 0.00010643
14 *23:20 *31:51 0.000193622
15 *30:9 *324:D 7.54473e-05
*RES
1 *323:Q *31:5 10.2464 
2 *31:5 *324:D 38.742 
3 *31:5 *31:51 42.125 
4 *31:51 *313:D 9.3 
*END

*D_NET *32 0.00773148
*CONN
*I *325:D I *D sky130_fd_sc_hd__sdfxtp_1
*I *314:D I *D sky130_fd_sc_hd__dlxtp_1
*I *324:Q O *D sky130_fd_sc_hd__sdfxtp_1
*CAP
1 *325:D 0.000235001
2 *314:D 0
3 *324:Q 0.00099804
4 *32:34 0.0014194
5 *32:7 0.00265244
6 *32:34 *34:19 0
7 latch_enable_out *32:7 0.000180959
8 *312:D *32:34 0.000189675
9 *321:CLK *32:34 1.32056e-05
10 *321:D *32:34 0.000109239
11 *324:D *32:7 4.08587e-06
12 *324:SCE *32:7 0.000370943
13 *325:SCE *325:D 0.00013479
14 *2:6 *32:34 0.000102646
15 *5:28 *32:34 0.000139215
16 *18:17 *32:7 0.000279867
17 *23:32 *32:34 0.000464542
18 *23:69 *325:D 3.15739e-05
19 *23:69 *32:34 9.26395e-05
20 *23:85 *325:D 7.80714e-06
21 *27:15 *325:D 0.00012945
22 *27:21 *325:D 5.72546e-05
23 *27:21 *32:7 2.43875e-05
24 *27:21 *32:34 3.93545e-05
25 *29:7 *32:34 5.49544e-05
*RES
1 *324:Q *32:7 27.0679 
2 *32:7 *32:34 46.4464 
3 *32:34 *314:D 13.8 
4 *32:7 *325:D 18.7598 
*END

*D_NET *33 0.00605684
*CONN
*I *315:D I *D sky130_fd_sc_hd__dlxtp_1
*I *326:D I *D sky130_fd_sc_hd__sdfxtp_1
*I *325:Q O *D sky130_fd_sc_hd__sdfxtp_1
*CAP
1 *315:D 0
2 *326:D 0.000524773
3 *325:Q 0
4 *33:51 0.00152985
5 *33:4 0.00205462
6 *326:D *328:D 0.0002404
7 *326:D *34:11 3.64544e-05
8 *326:D *35:47 9.64329e-05
9 *326:D *36:15 0
10 *33:51 *318:D 9.46095e-05
11 *321:SCE *33:51 0.000117076
12 *7:7 *33:51 2.59355e-05
13 *17:39 *33:51 0.000168334
14 *18:17 *33:51 0.000117757
15 *19:13 *326:D 7.57312e-05
16 *23:20 *33:51 9.76123e-05
17 *23:32 *33:51 0.000310495
18 *31:51 *33:51 0.000566765
*RES
1 *325:Q *33:4 9.3 
2 *33:4 *326:D 28.2196 
3 *33:4 *33:51 48.5357 
4 *33:51 *315:D 9.3 
*END

*D_NET *34 0.00717327
*CONN
*I *327:D I *D sky130_fd_sc_hd__sdfxtp_1
*I *316:D I *D sky130_fd_sc_hd__dlxtp_1
*I *326:Q O *D sky130_fd_sc_hd__sdfxtp_1
*CAP
1 *327:D 0
2 *316:D 0
3 *326:Q 0.00086852
4 *34:19 0.00120593
5 *34:11 0.00207445
6 latch_enable_out *34:19 0.000193189
7 scan_select_out *34:19 0
8 *316:GATE *34:19 4.25176e-05
9 *319:CLK *34:11 0.000124083
10 *326:CLK *34:11 6.78084e-05
11 *326:D *34:11 3.64544e-05
12 *326:SCD *34:11 0.000181776
13 *326:SCE *34:11 3.58258e-05
14 *327:CLK *34:19 0.000141734
15 *5:11 *34:19 9.36119e-05
16 *5:17 *34:19 9.58126e-05
17 *23:32 *34:19 0.000895483
18 *23:69 *34:19 0.000420773
19 *23:85 *34:11 3.95407e-07
20 *23:85 *34:19 0.000474756
21 *23:96 *34:11 0.000125599
22 *23:101 *34:11 1.47972e-05
23 *27:10 *34:19 7.79781e-06
24 *27:15 *34:19 2.00751e-05
25 *27:73 *34:11 2.59355e-05
26 *30:34 *34:19 2.59355e-05
27 *32:34 *34:19 0
*RES
1 *326:Q *34:11 30.4473 
2 *34:11 *34:19 41.0312 
3 *34:19 *316:D 9.3 
4 *34:11 *327:D 9.3 
*END

*D_NET *35 0.00519161
*CONN
*I *317:D I *D sky130_fd_sc_hd__dlxtp_1
*I *328:D I *D sky130_fd_sc_hd__sdfxtp_1
*I *327:Q O *D sky130_fd_sc_hd__sdfxtp_1
*CAP
1 *317:D 0.000114557
2 *328:D 0.000679113
3 *327:Q 0
4 *35:47 0.00111577
5 *35:4 0.00168033
6 *328:D *36:15 0
7 *35:47 *36:15 9.23301e-05
8 *319:CLK *35:47 2.69955e-05
9 *319:RESET_B *35:47 1.05379e-05
10 *321:CLK *317:D 0.000197045
11 *322:SCD *35:47 4.58194e-05
12 *323:CLK *35:47 5.49489e-05
13 *323:SCE *35:47 8.00495e-05
14 *324:D *35:47 9.06726e-05
15 *326:D *328:D 0.0002404
16 *326:D *35:47 9.64329e-05
17 *327:SCD *328:D 5.60201e-05
18 *328:SCE *328:D 6.03372e-05
19 *329:A *35:47 1.69252e-05
20 *27:30 *35:47 0.000172679
21 *27:32 *317:D 3.12359e-05
22 *27:32 *35:47 0.000199433
23 *30:34 *317:D 0.000129979
*RES
1 *327:Q *35:4 9.3 
2 *35:4 *328:D 30.5589 
3 *35:4 *35:47 49.0714 
4 *35:47 *317:D 17.1929 
*END

*D_NET *36 0.00399512
*CONN
*I *319:D I *D sky130_fd_sc_hd__dfrtp_4
*I *318:D I *D sky130_fd_sc_hd__dlxtp_1
*I *328:Q O *D sky130_fd_sc_hd__sdfxtp_1
*CAP
1 *319:D 4.38998e-05
2 *318:D 0.000776157
3 *328:Q 0.000837352
4 *36:15 0.00165741
5 *319:CLK *319:D 4.38751e-06
6 *319:RESET_B *319:D 2.51343e-06
7 *319:RESET_B *36:15 0.000109901
8 *324:D *318:D 0.000264903
9 *326:D *36:15 0
10 *328:D *36:15 0
11 *15:33 *318:D 0
12 *17:39 *36:15 0
13 *22:13 *36:15 0.000111661
14 *33:51 *318:D 9.46095e-05
15 *35:47 *36:15 9.23301e-05
*RES
1 *328:Q *36:15 32.3357 
2 *36:15 *318:D 32.6214 
3 *36:15 *319:D 9.88929 
*END
