*SPEF "ieee 1481-1999"
*DESIGN "scan_controller"
*DATE "11:11:11 Fri 11 11, 1111"
*VENDOR "OpenRCX"
*PROGRAM "Parallel Extraction"
*VERSION "1.0"
*DESIGN_FLOW "NAME_SCOPE LOCAL" "PIN_CAP NONE"
*DIVIDER /
*DELIMITER :
*BUS_DELIMITER []
*T_UNIT 1 NS
*C_UNIT 1 PF
*R_UNIT 1 OHM
*L_UNIT 1 HENRY

*NAME_MAP
*1 active_select[0]
*2 active_select[1]
*3 active_select[2]
*4 active_select[3]
*5 active_select[4]
*6 active_select[5]
*7 active_select[6]
*8 active_select[7]
*9 active_select[8]
*10 clk
*11 driver_sel[0]
*12 driver_sel[1]
*13 inputs[0]
*14 inputs[1]
*15 inputs[2]
*16 inputs[3]
*17 inputs[4]
*18 inputs[5]
*19 inputs[6]
*20 inputs[7]
*21 la_scan_clk_in
*22 la_scan_data_in
*23 la_scan_data_out
*24 la_scan_latch_en
*25 la_scan_select
*26 net43
*27 net53
*28 net54
*29 net55
*30 net56
*31 net57
*32 net58
*33 net59
*34 net60
*35 net61
*36 net62
*37 net44
*38 net63
*39 net64
*40 net65
*41 net66
*42 net67
*43 net68
*44 net69
*45 net70
*46 net71
*47 net72
*48 net45
*49 net73
*50 net74
*51 net75
*52 net76
*53 net77
*54 net78
*55 net79
*56 net80
*57 net46
*58 net47
*59 net48
*60 net49
*61 net50
*62 net51
*63 net52
*64 outputs[0]
*65 outputs[1]
*66 outputs[2]
*67 outputs[3]
*68 outputs[4]
*69 outputs[5]
*70 outputs[6]
*71 outputs[7]
*72 ready
*73 reset
*74 scan_clk_in
*75 scan_clk_out
*76 scan_data_in
*77 scan_data_out
*78 scan_latch_en
*79 scan_select
*80 set_clk_div
*81 slow_clk
*84 _0000_
*85 _0001_
*86 _0002_
*87 _0003_
*88 _0004_
*89 _0005_
*90 _0006_
*91 _0007_
*92 _0008_
*93 _0009_
*94 _0010_
*95 _0011_
*96 _0012_
*97 _0013_
*98 _0014_
*99 _0015_
*100 _0016_
*101 _0017_
*102 _0018_
*103 _0019_
*104 _0020_
*105 _0021_
*106 _0022_
*107 _0023_
*108 _0024_
*109 _0025_
*110 _0026_
*111 _0027_
*112 _0028_
*113 _0029_
*114 _0030_
*115 _0031_
*116 _0032_
*117 _0033_
*118 _0034_
*119 _0035_
*120 _0036_
*121 _0037_
*122 _0038_
*123 _0039_
*124 _0040_
*125 _0041_
*126 _0042_
*127 _0043_
*128 _0044_
*129 _0045_
*130 _0046_
*131 _0047_
*132 _0048_
*133 _0049_
*134 _0050_
*135 _0051_
*136 _0052_
*137 _0053_
*138 _0054_
*139 _0055_
*140 _0056_
*141 _0057_
*142 _0058_
*143 _0059_
*144 _0060_
*145 _0061_
*146 _0062_
*147 _0063_
*148 _0064_
*149 _0065_
*150 _0066_
*151 _0067_
*152 _0068_
*153 _0069_
*154 _0070_
*155 _0071_
*156 _0072_
*157 _0073_
*158 _0074_
*159 _0075_
*160 _0076_
*161 _0077_
*162 _0078_
*163 _0079_
*164 _0080_
*165 _0081_
*166 _0082_
*167 _0083_
*168 _0084_
*169 _0085_
*170 _0086_
*171 _0087_
*172 _0088_
*173 _0089_
*174 _0090_
*175 _0091_
*176 _0092_
*177 _0093_
*178 _0094_
*179 _0095_
*180 _0096_
*181 _0097_
*182 _0098_
*183 _0099_
*184 _0100_
*185 _0101_
*186 _0102_
*187 _0103_
*188 _0104_
*189 _0105_
*190 _0106_
*191 _0107_
*192 _0108_
*193 _0109_
*194 _0110_
*195 _0111_
*196 _0112_
*197 _0113_
*198 _0114_
*199 _0115_
*200 _0116_
*201 _0117_
*202 _0118_
*203 _0119_
*204 _0120_
*205 _0121_
*206 _0122_
*207 _0123_
*208 _0124_
*209 _0125_
*210 _0126_
*211 _0127_
*212 _0128_
*213 _0129_
*214 _0130_
*215 _0131_
*216 _0132_
*217 _0133_
*218 _0134_
*219 _0135_
*220 _0136_
*221 _0137_
*222 _0138_
*223 _0139_
*224 _0140_
*225 _0141_
*226 _0142_
*227 _0143_
*228 _0144_
*229 _0145_
*230 _0146_
*231 _0147_
*232 _0148_
*233 _0149_
*234 _0150_
*235 _0151_
*236 _0152_
*237 _0153_
*238 _0154_
*239 _0155_
*240 _0156_
*241 _0157_
*242 _0158_
*243 _0159_
*244 _0160_
*245 _0161_
*246 _0162_
*247 _0163_
*248 _0164_
*249 _0165_
*250 _0166_
*251 _0167_
*252 _0168_
*253 _0169_
*254 _0170_
*255 _0171_
*256 _0172_
*257 _0173_
*258 _0174_
*259 _0175_
*260 _0176_
*261 _0177_
*262 _0178_
*263 _0179_
*264 _0180_
*265 _0181_
*266 _0182_
*267 _0183_
*268 _0184_
*269 _0185_
*270 _0186_
*271 _0187_
*272 _0188_
*273 _0189_
*274 _0190_
*275 _0191_
*276 _0192_
*277 _0193_
*278 _0194_
*279 _0195_
*280 _0196_
*281 _0197_
*282 _0198_
*283 _0199_
*284 _0200_
*285 _0201_
*286 _0202_
*287 _0203_
*288 _0204_
*289 _0205_
*290 _0206_
*291 _0207_
*292 _0208_
*293 _0209_
*294 _0210_
*295 _0211_
*296 _0212_
*297 _0213_
*298 _0214_
*299 _0215_
*300 _0216_
*301 _0217_
*302 _0218_
*303 _0219_
*304 _0220_
*305 _0221_
*306 _0222_
*307 _0223_
*308 _0224_
*309 _0225_
*310 _0226_
*311 _0227_
*312 _0228_
*313 _0229_
*314 _0230_
*315 _0231_
*316 _0232_
*317 _0233_
*318 _0234_
*319 _0235_
*320 _0236_
*321 _0237_
*322 _0238_
*323 _0239_
*324 _0240_
*325 _0241_
*326 _0242_
*327 _0243_
*328 _0244_
*329 _0245_
*330 _0246_
*331 _0247_
*332 _0248_
*333 _0249_
*334 _0250_
*335 _0251_
*336 _0252_
*337 _0253_
*338 _0254_
*339 _0255_
*340 _0256_
*341 _0257_
*342 _0258_
*343 _0259_
*344 _0260_
*345 _0261_
*346 _0262_
*347 _0263_
*348 _0264_
*349 _0265_
*350 _0266_
*351 _0267_
*352 _0268_
*353 _0269_
*354 _0270_
*355 _0271_
*356 _0272_
*357 _0273_
*358 _0274_
*359 _0275_
*360 _0276_
*361 _0277_
*362 _0278_
*363 _0279_
*364 _0280_
*365 _0281_
*366 _0282_
*367 _0286_
*368 _0287_
*369 _0288_
*370 _0289_
*371 _0290_
*372 _0291_
*373 _0292_
*374 _0293_
*375 _0294_
*376 _0295_
*377 _0296_
*378 _0297_
*379 _0298_
*380 _0299_
*381 _0300_
*382 _0301_
*383 _0302_
*384 _0303_
*385 _0304_
*386 _0305_
*387 _0306_
*388 _0307_
*389 _0308_
*390 _0309_
*391 _0310_
*392 _0311_
*393 _0312_
*394 _0313_
*395 _0314_
*396 _0315_
*397 _0316_
*398 _0317_
*399 _0318_
*400 _0319_
*401 _0320_
*402 _0321_
*403 _0322_
*404 _0323_
*405 _0324_
*406 _0325_
*407 _0326_
*408 _0327_
*409 _0328_
*410 _0329_
*411 _0330_
*412 _0331_
*413 _0332_
*414 _0333_
*415 _0334_
*416 _0335_
*417 _0336_
*418 _0337_
*419 _0338_
*420 _0339_
*421 _0340_
*422 _0341_
*423 _0342_
*424 _0343_
*425 _0344_
*426 _0345_
*427 _0346_
*428 _0347_
*429 _0348_
*430 _0349_
*431 _0350_
*432 _0351_
*433 _0352_
*434 _0353_
*435 _0354_
*436 _0355_
*437 _0356_
*438 _0357_
*439 _0358_
*440 _0359_
*441 _0360_
*442 _0361_
*443 _0362_
*444 _0363_
*445 _0364_
*446 _0365_
*447 _0366_
*448 _0367_
*449 _0368_
*450 _0369_
*451 _0370_
*452 _0371_
*453 _0372_
*454 _0373_
*455 _0374_
*456 _0375_
*457 _0376_
*458 _0377_
*459 _0378_
*460 _0379_
*461 _0380_
*462 _0381_
*463 _0382_
*464 _0383_
*465 _0384_
*466 _0385_
*467 _0386_
*468 _0387_
*469 _0388_
*470 _0389_
*471 _0390_
*472 _0391_
*473 _0392_
*474 _0393_
*475 _0394_
*476 _0395_
*477 _0396_
*478 _0397_
*479 _0398_
*480 _0399_
*481 _0400_
*482 _0401_
*483 _0402_
*484 _0403_
*485 _0404_
*486 _0405_
*487 _0406_
*488 _0407_
*489 _0408_
*490 _0409_
*491 _0410_
*492 _0411_
*493 _0412_
*494 _0413_
*495 _0414_
*496 _0415_
*497 _0416_
*498 _0417_
*499 _0418_
*500 _0419_
*501 active
*502 aio_input_reg\[0\]
*503 aio_input_reg\[1\]
*504 aio_input_reg\[2\]
*505 aio_input_reg\[3\]
*506 aio_input_reg\[4\]
*507 aio_input_reg\[5\]
*508 aio_input_reg\[6\]
*509 aio_input_reg\[7\]
*510 aio_input_sh
*511 aio_input_shift\[0\]
*512 aio_input_shift\[1\]
*513 aio_input_shift\[2\]
*514 aio_input_shift\[3\]
*515 aio_input_shift\[4\]
*516 aio_input_shift\[5\]
*517 aio_input_shift\[6\]
*518 aio_input_shift\[7\]
*519 aio_input_sync\[0\]
*520 aio_input_sync\[1\]
*521 aio_input_sync\[2\]
*522 aio_input_sync\[3\]
*523 aio_input_sync\[4\]
*524 aio_input_sync\[5\]
*525 aio_input_sync\[6\]
*526 aio_input_sync\[7\]
*527 aio_output_cap
*528 aio_output_reg\[0\]
*529 aio_output_reg\[1\]
*530 aio_output_reg\[2\]
*531 aio_output_reg\[3\]
*532 aio_output_reg\[4\]
*533 aio_output_reg\[5\]
*534 aio_output_reg\[6\]
*535 aio_output_reg\[7\]
*536 aio_output_shift\[0\]
*537 aio_output_shift\[1\]
*538 aio_output_shift\[2\]
*539 aio_output_shift\[3\]
*540 aio_output_shift\[4\]
*541 aio_output_shift\[5\]
*542 aio_output_shift\[6\]
*543 aio_output_shift\[7\]
*544 bit_cnt\[0\]
*545 bit_cnt\[1\]
*546 bit_cnt\[2\]
*547 bit_cnt\[3\]
*548 clk_divider_I\.active
*549 clk_divider_I\.ce
*550 clk_divider_I\.compare\[0\]
*551 clk_divider_I\.compare\[1\]
*552 clk_divider_I\.compare\[2\]
*553 clk_divider_I\.compare\[3\]
*554 clk_divider_I\.compare\[4\]
*555 clk_divider_I\.compare\[5\]
*556 clk_divider_I\.compare\[6\]
*557 clk_divider_I\.compare\[7\]
*558 clk_divider_I\.counter\[0\]
*559 clk_divider_I\.counter\[1\]
*560 clk_divider_I\.counter\[2\]
*561 clk_divider_I\.counter\[3\]
*562 clk_divider_I\.counter\[4\]
*563 clk_divider_I\.counter\[5\]
*564 clk_divider_I\.counter\[6\]
*565 clk_divider_I\.counter\[7\]
*566 clk_divider_I\.reset
*567 clk_divider_I\.set_now
*568 clk_divider_I\.set_sync\[0\]
*569 clk_divider_I\.set_sync\[1\]
*570 clknet_0_clk
*571 clknet_0_scan_clk_in
*572 clknet_1_0__leaf_scan_clk_in
*573 clknet_1_1__leaf_scan_clk_in
*574 clknet_3_0__leaf_clk
*575 clknet_3_1__leaf_clk
*576 clknet_3_2__leaf_clk
*577 clknet_3_3__leaf_clk
*578 clknet_3_4__leaf_clk
*579 clknet_3_5__leaf_clk
*580 clknet_3_6__leaf_clk
*581 clknet_3_7__leaf_clk
*582 int_scan_clk_out
*583 int_scan_data_out
*584 int_scan_latch_en
*585 int_scan_select
*586 net1
*587 net10
*588 net11
*589 net12
*590 net13
*591 net14
*592 net15
*593 net16
*594 net17
*595 net18
*596 net19
*597 net2
*598 net20
*599 net21
*600 net22
*601 net23
*602 net24
*603 net25
*604 net26
*605 net27
*606 net28
*607 net29
*608 net3
*609 net30
*610 net31
*611 net32
*612 net33
*613 net34
*614 net35
*615 net36
*616 net37
*617 net38
*618 net39
*619 net4
*620 net40
*621 net41
*622 net42
*623 net5
*624 net6
*625 net7
*626 net8
*627 net81
*628 net82
*629 net83
*630 net84
*631 net85
*632 net86
*633 net87
*634 net88
*635 net89
*636 net9
*637 net90
*638 net91
*639 proj_cnt\[0\]
*640 proj_cnt\[1\]
*641 proj_cnt\[2\]
*642 proj_cnt\[3\]
*643 proj_cnt\[4\]
*644 proj_cnt\[5\]
*645 proj_cnt\[6\]
*646 proj_cnt\[7\]
*647 proj_cnt\[8\]
*648 rst_shift\[0\]
*649 rst_shift\[1\]
*650 state\[0\]
*651 state\[12\]
*652 state\[13\]
*653 state\[1\]
*654 state\[2\]
*655 state\[3\]
*656 state\[4\]
*657 state\[5\]
*658 state\[6\]
*659 state\[8\]
*660 state\[9\]
*661 ws_cfg\[0\]
*662 ws_cfg\[1\]
*663 ws_cfg\[2\]
*664 ws_cfg\[3\]
*665 ws_cfg\[4\]
*666 ws_cfg\[5\]
*667 ws_cfg\[6\]
*668 ws_cfg\[7\]
*669 ws_cnt\[0\]
*670 ws_cnt\[1\]
*671 ws_cnt\[2\]
*672 ws_cnt\[3\]
*673 ws_cnt\[4\]
*674 ws_cnt\[5\]
*675 ws_cnt\[6\]
*676 ws_cnt\[7\]
*677 ws_set_now
*678 ws_set_sync\[0\]
*679 ws_set_sync\[1\]
*680 ws_set_sync\[2\]
*681 ANTENNA_1
*682 ANTENNA_2
*683 FILLER_0_110
*684 FILLER_0_113
*685 FILLER_0_122
*686 FILLER_0_129
*687 FILLER_0_136
*688 FILLER_0_141
*689 FILLER_0_145
*690 FILLER_0_15
*691 FILLER_0_150
*692 FILLER_0_158
*693 FILLER_0_165
*694 FILLER_0_169
*695 FILLER_0_174
*696 FILLER_0_188
*697 FILLER_0_197
*698 FILLER_0_202
*699 FILLER_0_210
*700 FILLER_0_216
*701 FILLER_0_225
*702 FILLER_0_233
*703 FILLER_0_250
*704 FILLER_0_253
*705 FILLER_0_258
*706 FILLER_0_266
*707 FILLER_0_27
*708 FILLER_0_272
*709 FILLER_0_281
*710 FILLER_0_289
*711 FILLER_0_29
*712 FILLER_0_3
*713 FILLER_0_301
*714 FILLER_0_307
*715 FILLER_0_309
*716 FILLER_0_314
*717 FILLER_0_321
*718 FILLER_0_333
*719 FILLER_0_337
*720 FILLER_0_34
*721 FILLER_0_343
*722 FILLER_0_355
*723 FILLER_0_363
*724 FILLER_0_365
*725 FILLER_0_373
*726 FILLER_0_390
*727 FILLER_0_393
*728 FILLER_0_398
*729 FILLER_0_406
*730 FILLER_0_41
*731 FILLER_0_412
*732 FILLER_0_421
*733 FILLER_0_426
*734 FILLER_0_438
*735 FILLER_0_446
*736 FILLER_0_449
*737 FILLER_0_471
*738 FILLER_0_53
*739 FILLER_0_57
*740 FILLER_0_75
*741 FILLER_0_8
*742 FILLER_0_82
*743 FILLER_0_85
*744 FILLER_0_93
*745 FILLER_10_119
*746 FILLER_10_13
*747 FILLER_10_131
*748 FILLER_10_139
*749 FILLER_10_141
*750 FILLER_10_146
*751 FILLER_10_166
*752 FILLER_10_177
*753 FILLER_10_189
*754 FILLER_10_195
*755 FILLER_10_197
*756 FILLER_10_214
*757 FILLER_10_227
*758 FILLER_10_238
*759 FILLER_10_245
*760 FILLER_10_251
*761 FILLER_10_253
*762 FILLER_10_258
*763 FILLER_10_26
*764 FILLER_10_284
*765 FILLER_10_29
*766 FILLER_10_291
*767 FILLER_10_3
*768 FILLER_10_306
*769 FILLER_10_309
*770 FILLER_10_314
*771 FILLER_10_321
*772 FILLER_10_328
*773 FILLER_10_335
*774 FILLER_10_347
*775 FILLER_10_362
*776 FILLER_10_365
*777 FILLER_10_373
*778 FILLER_10_383
*779 FILLER_10_390
*780 FILLER_10_397
*781 FILLER_10_40
*782 FILLER_10_409
*783 FILLER_10_418
*784 FILLER_10_421
*785 FILLER_10_432
*786 FILLER_10_44
*787 FILLER_10_452
*788 FILLER_10_461
*789 FILLER_10_467
*790 FILLER_10_471
*791 FILLER_10_65
*792 FILLER_10_78
*793 FILLER_10_85
*794 FILLER_10_91
*795 FILLER_10_95
*796 FILLER_11_101
*797 FILLER_11_109
*798 FILLER_11_113
*799 FILLER_11_124
*800 FILLER_11_136
*801 FILLER_11_148
*802 FILLER_11_165
*803 FILLER_11_169
*804 FILLER_11_180
*805 FILLER_11_192
*806 FILLER_11_216
*807 FILLER_11_225
*808 FILLER_11_23
*809 FILLER_11_237
*810 FILLER_11_249
*811 FILLER_11_261
*812 FILLER_11_276
*813 FILLER_11_281
*814 FILLER_11_289
*815 FILLER_11_3
*816 FILLER_11_301
*817 FILLER_11_306
*818 FILLER_11_316
*819 FILLER_11_323
*820 FILLER_11_335
*821 FILLER_11_337
*822 FILLER_11_346
*823 FILLER_11_361
*824 FILLER_11_373
*825 FILLER_11_385
*826 FILLER_11_391
*827 FILLER_11_393
*828 FILLER_11_405
*829 FILLER_11_413
*830 FILLER_11_419
*831 FILLER_11_428
*832 FILLER_11_43
*833 FILLER_11_440
*834 FILLER_11_449
*835 FILLER_11_459
*836 FILLER_11_468
*837 FILLER_11_472
*838 FILLER_11_54
*839 FILLER_11_57
*840 FILLER_11_62
*841 FILLER_11_66
*842 FILLER_11_83
*843 FILLER_11_95
*844 FILLER_12_122
*845 FILLER_12_129
*846 FILLER_12_137
*847 FILLER_12_141
*848 FILLER_12_153
*849 FILLER_12_172
*850 FILLER_12_185
*851 FILLER_12_194
*852 FILLER_12_197
*853 FILLER_12_201
*854 FILLER_12_218
*855 FILLER_12_231
*856 FILLER_12_243
*857 FILLER_12_251
*858 FILLER_12_253
*859 FILLER_12_26
*860 FILLER_12_272
*861 FILLER_12_29
*862 FILLER_12_298
*863 FILLER_12_3
*864 FILLER_12_305
*865 FILLER_12_309
*866 FILLER_12_332
*867 FILLER_12_340
*868 FILLER_12_344
*869 FILLER_12_351
*870 FILLER_12_362
*871 FILLER_12_365
*872 FILLER_12_372
*873 FILLER_12_376
*874 FILLER_12_384
*875 FILLER_12_39
*876 FILLER_12_396
*877 FILLER_12_404
*878 FILLER_12_410
*879 FILLER_12_418
*880 FILLER_12_421
*881 FILLER_12_427
*882 FILLER_12_444
*883 FILLER_12_464
*884 FILLER_12_471
*885 FILLER_12_63
*886 FILLER_12_78
*887 FILLER_12_85
*888 FILLER_12_9
*889 FILLER_12_93
*890 FILLER_12_98
*891 FILLER_13_110
*892 FILLER_13_113
*893 FILLER_13_124
*894 FILLER_13_131
*895 FILLER_13_139
*896 FILLER_13_158
*897 FILLER_13_166
*898 FILLER_13_169
*899 FILLER_13_174
*900 FILLER_13_185
*901 FILLER_13_192
*902 FILLER_13_198
*903 FILLER_13_202
*904 FILLER_13_222
*905 FILLER_13_225
*906 FILLER_13_236
*907 FILLER_13_242
*908 FILLER_13_263
*909 FILLER_13_277
*910 FILLER_13_281
*911 FILLER_13_286
*912 FILLER_13_29
*913 FILLER_13_293
*914 FILLER_13_3
*915 FILLER_13_319
*916 FILLER_13_327
*917 FILLER_13_335
*918 FILLER_13_337
*919 FILLER_13_344
*920 FILLER_13_352
*921 FILLER_13_376
*922 FILLER_13_383
*923 FILLER_13_391
*924 FILLER_13_393
*925 FILLER_13_409
*926 FILLER_13_426
*927 FILLER_13_440
*928 FILLER_13_449
*929 FILLER_13_454
*930 FILLER_13_461
*931 FILLER_13_49
*932 FILLER_13_55
*933 FILLER_13_57
*934 FILLER_13_75
*935 FILLER_13_87
*936 FILLER_13_9
*937 FILLER_13_99
*938 FILLER_14_101
*939 FILLER_14_105
*940 FILLER_14_129
*941 FILLER_14_137
*942 FILLER_14_141
*943 FILLER_14_153
*944 FILLER_14_157
*945 FILLER_14_178
*946 FILLER_14_191
*947 FILLER_14_195
*948 FILLER_14_197
*949 FILLER_14_201
*950 FILLER_14_205
*951 FILLER_14_21
*952 FILLER_14_214
*953 FILLER_14_235
*954 FILLER_14_247
*955 FILLER_14_251
*956 FILLER_14_253
*957 FILLER_14_259
*958 FILLER_14_27
*959 FILLER_14_276
*960 FILLER_14_289
*961 FILLER_14_29
*962 FILLER_14_295
*963 FILLER_14_3
*964 FILLER_14_300
*965 FILLER_14_309
*966 FILLER_14_314
*967 FILLER_14_321
*968 FILLER_14_329
*969 FILLER_14_352
*970 FILLER_14_362
*971 FILLER_14_365
*972 FILLER_14_371
*973 FILLER_14_375
*974 FILLER_14_381
*975 FILLER_14_388
*976 FILLER_14_400
*977 FILLER_14_405
*978 FILLER_14_413
*979 FILLER_14_418
*980 FILLER_14_421
*981 FILLER_14_445
*982 FILLER_14_45
*983 FILLER_14_452
*984 FILLER_14_459
*985 FILLER_14_471
*986 FILLER_14_58
*987 FILLER_14_78
*988 FILLER_14_85
*989 FILLER_14_97
*990 FILLER_15_103
*991 FILLER_15_107
*992 FILLER_15_111
*993 FILLER_15_113
*994 FILLER_15_13
*995 FILLER_15_135
*996 FILLER_15_142
*997 FILLER_15_153
*998 FILLER_15_166
*999 FILLER_15_169
*1000 FILLER_15_191
*1001 FILLER_15_199
*1002 FILLER_15_207
*1003 FILLER_15_212
*1004 FILLER_15_222
*1005 FILLER_15_225
*1006 FILLER_15_243
*1007 FILLER_15_258
*1008 FILLER_15_267
*1009 FILLER_15_274
*1010 FILLER_15_281
*1011 FILLER_15_286
*1012 FILLER_15_3
*1013 FILLER_15_313
*1014 FILLER_15_320
*1015 FILLER_15_328
*1016 FILLER_15_33
*1017 FILLER_15_334
*1018 FILLER_15_337
*1019 FILLER_15_342
*1020 FILLER_15_348
*1021 FILLER_15_369
*1022 FILLER_15_381
*1023 FILLER_15_388
*1024 FILLER_15_393
*1025 FILLER_15_402
*1026 FILLER_15_408
*1027 FILLER_15_429
*1028 FILLER_15_433
*1029 FILLER_15_443
*1030 FILLER_15_447
*1031 FILLER_15_449
*1032 FILLER_15_454
*1033 FILLER_15_46
*1034 FILLER_15_461
*1035 FILLER_15_468
*1036 FILLER_15_472
*1037 FILLER_15_50
*1038 FILLER_15_54
*1039 FILLER_15_57
*1040 FILLER_15_75
*1041 FILLER_15_87
*1042 FILLER_15_9
*1043 FILLER_15_99
*1044 FILLER_16_121
*1045 FILLER_16_13
*1046 FILLER_16_134
*1047 FILLER_16_141
*1048 FILLER_16_146
*1049 FILLER_16_150
*1050 FILLER_16_154
*1051 FILLER_16_178
*1052 FILLER_16_191
*1053 FILLER_16_195
*1054 FILLER_16_197
*1055 FILLER_16_204
*1056 FILLER_16_232
*1057 FILLER_16_244
*1058 FILLER_16_253
*1059 FILLER_16_26
*1060 FILLER_16_275
*1061 FILLER_16_29
*1062 FILLER_16_295
*1063 FILLER_16_299
*1064 FILLER_16_3
*1065 FILLER_16_305
*1066 FILLER_16_309
*1067 FILLER_16_319
*1068 FILLER_16_331
*1069 FILLER_16_337
*1070 FILLER_16_341
*1071 FILLER_16_353
*1072 FILLER_16_362
*1073 FILLER_16_365
*1074 FILLER_16_371
*1075 FILLER_16_378
*1076 FILLER_16_387
*1077 FILLER_16_394
*1078 FILLER_16_401
*1079 FILLER_16_413
*1080 FILLER_16_419
*1081 FILLER_16_421
*1082 FILLER_16_427
*1083 FILLER_16_455
*1084 FILLER_16_462
*1085 FILLER_16_47
*1086 FILLER_16_471
*1087 FILLER_16_69
*1088 FILLER_16_82
*1089 FILLER_16_85
*1090 FILLER_16_9
*1091 FILLER_16_97
*1092 FILLER_17_110
*1093 FILLER_17_113
*1094 FILLER_17_124
*1095 FILLER_17_131
*1096 FILLER_17_138
*1097 FILLER_17_14
*1098 FILLER_17_150
*1099 FILLER_17_163
*1100 FILLER_17_167
*1101 FILLER_17_169
*1102 FILLER_17_175
*1103 FILLER_17_179
*1104 FILLER_17_189
*1105 FILLER_17_196
*1106 FILLER_17_204
*1107 FILLER_17_208
*1108 FILLER_17_218
*1109 FILLER_17_225
*1110 FILLER_17_237
*1111 FILLER_17_250
*1112 FILLER_17_26
*1113 FILLER_17_262
*1114 FILLER_17_268
*1115 FILLER_17_281
*1116 FILLER_17_288
*1117 FILLER_17_295
*1118 FILLER_17_3
*1119 FILLER_17_307
*1120 FILLER_17_325
*1121 FILLER_17_334
*1122 FILLER_17_337
*1123 FILLER_17_346
*1124 FILLER_17_35
*1125 FILLER_17_354
*1126 FILLER_17_375
*1127 FILLER_17_386
*1128 FILLER_17_393
*1129 FILLER_17_402
*1130 FILLER_17_414
*1131 FILLER_17_420
*1132 FILLER_17_429
*1133 FILLER_17_439
*1134 FILLER_17_44
*1135 FILLER_17_446
*1136 FILLER_17_449
*1137 FILLER_17_454
*1138 FILLER_17_466
*1139 FILLER_17_472
*1140 FILLER_17_52
*1141 FILLER_17_57
*1142 FILLER_17_75
*1143 FILLER_17_87
*1144 FILLER_17_97
*1145 FILLER_18_108
*1146 FILLER_18_121
*1147 FILLER_18_128
*1148 FILLER_18_141
*1149 FILLER_18_15
*1150 FILLER_18_153
*1151 FILLER_18_182
*1152 FILLER_18_189
*1153 FILLER_18_195
*1154 FILLER_18_197
*1155 FILLER_18_209
*1156 FILLER_18_215
*1157 FILLER_18_232
*1158 FILLER_18_240
*1159 FILLER_18_250
*1160 FILLER_18_253
*1161 FILLER_18_26
*1162 FILLER_18_264
*1163 FILLER_18_276
*1164 FILLER_18_29
*1165 FILLER_18_295
*1166 FILLER_18_3
*1167 FILLER_18_307
*1168 FILLER_18_309
*1169 FILLER_18_313
*1170 FILLER_18_317
*1171 FILLER_18_329
*1172 FILLER_18_350
*1173 FILLER_18_357
*1174 FILLER_18_363
*1175 FILLER_18_365
*1176 FILLER_18_369
*1177 FILLER_18_390
*1178 FILLER_18_402
*1179 FILLER_18_409
*1180 FILLER_18_418
*1181 FILLER_18_421
*1182 FILLER_18_443
*1183 FILLER_18_467
*1184 FILLER_18_47
*1185 FILLER_18_61
*1186 FILLER_18_70
*1187 FILLER_18_77
*1188 FILLER_18_83
*1189 FILLER_18_85
*1190 FILLER_18_95
*1191 FILLER_19_110
*1192 FILLER_19_113
*1193 FILLER_19_126
*1194 FILLER_19_138
*1195 FILLER_19_144
*1196 FILLER_19_15
*1197 FILLER_19_154
*1198 FILLER_19_162
*1199 FILLER_19_166
*1200 FILLER_19_169
*1201 FILLER_19_173
*1202 FILLER_19_194
*1203 FILLER_19_207
*1204 FILLER_19_219
*1205 FILLER_19_223
*1206 FILLER_19_225
*1207 FILLER_19_231
*1208 FILLER_19_235
*1209 FILLER_19_246
*1210 FILLER_19_26
*1211 FILLER_19_266
*1212 FILLER_19_278
*1213 FILLER_19_281
*1214 FILLER_19_3
*1215 FILLER_19_301
*1216 FILLER_19_313
*1217 FILLER_19_325
*1218 FILLER_19_333
*1219 FILLER_19_337
*1220 FILLER_19_342
*1221 FILLER_19_355
*1222 FILLER_19_363
*1223 FILLER_19_372
*1224 FILLER_19_379
*1225 FILLER_19_391
*1226 FILLER_19_393
*1227 FILLER_19_405
*1228 FILLER_19_409
*1229 FILLER_19_413
*1230 FILLER_19_433
*1231 FILLER_19_440
*1232 FILLER_19_449
*1233 FILLER_19_46
*1234 FILLER_19_461
*1235 FILLER_19_467
*1236 FILLER_19_471
*1237 FILLER_19_54
*1238 FILLER_19_57
*1239 FILLER_19_64
*1240 FILLER_19_71
*1241 FILLER_19_79
*1242 FILLER_19_85
*1243 FILLER_19_97
*1244 FILLER_1_103
*1245 FILLER_1_110
*1246 FILLER_1_113
*1247 FILLER_1_117
*1248 FILLER_1_122
*1249 FILLER_1_131
*1250 FILLER_1_139
*1251 FILLER_1_161
*1252 FILLER_1_167
*1253 FILLER_1_169
*1254 FILLER_1_175
*1255 FILLER_1_182
*1256 FILLER_1_194
*1257 FILLER_1_20
*1258 FILLER_1_206
*1259 FILLER_1_218
*1260 FILLER_1_225
*1261 FILLER_1_237
*1262 FILLER_1_241
*1263 FILLER_1_253
*1264 FILLER_1_265
*1265 FILLER_1_277
*1266 FILLER_1_281
*1267 FILLER_1_293
*1268 FILLER_1_3
*1269 FILLER_1_305
*1270 FILLER_1_317
*1271 FILLER_1_32
*1272 FILLER_1_329
*1273 FILLER_1_335
*1274 FILLER_1_337
*1275 FILLER_1_349
*1276 FILLER_1_357
*1277 FILLER_1_360
*1278 FILLER_1_365
*1279 FILLER_1_377
*1280 FILLER_1_389
*1281 FILLER_1_393
*1282 FILLER_1_405
*1283 FILLER_1_417
*1284 FILLER_1_429
*1285 FILLER_1_44
*1286 FILLER_1_441
*1287 FILLER_1_447
*1288 FILLER_1_449
*1289 FILLER_1_457
*1290 FILLER_1_461
*1291 FILLER_1_468
*1292 FILLER_1_472
*1293 FILLER_1_53
*1294 FILLER_1_57
*1295 FILLER_1_69
*1296 FILLER_1_75
*1297 FILLER_1_79
*1298 FILLER_1_8
*1299 FILLER_1_91
*1300 FILLER_20_109
*1301 FILLER_20_115
*1302 FILLER_20_124
*1303 FILLER_20_133
*1304 FILLER_20_139
*1305 FILLER_20_141
*1306 FILLER_20_15
*1307 FILLER_20_153
*1308 FILLER_20_165
*1309 FILLER_20_169
*1310 FILLER_20_182
*1311 FILLER_20_189
*1312 FILLER_20_195
*1313 FILLER_20_197
*1314 FILLER_20_209
*1315 FILLER_20_217
*1316 FILLER_20_225
*1317 FILLER_20_233
*1318 FILLER_20_250
*1319 FILLER_20_253
*1320 FILLER_20_258
*1321 FILLER_20_26
*1322 FILLER_20_270
*1323 FILLER_20_276
*1324 FILLER_20_280
*1325 FILLER_20_29
*1326 FILLER_20_3
*1327 FILLER_20_300
*1328 FILLER_20_309
*1329 FILLER_20_320
*1330 FILLER_20_333
*1331 FILLER_20_345
*1332 FILLER_20_35
*1333 FILLER_20_357
*1334 FILLER_20_363
*1335 FILLER_20_365
*1336 FILLER_20_376
*1337 FILLER_20_388
*1338 FILLER_20_400
*1339 FILLER_20_417
*1340 FILLER_20_42
*1341 FILLER_20_421
*1342 FILLER_20_427
*1343 FILLER_20_444
*1344 FILLER_20_456
*1345 FILLER_20_468
*1346 FILLER_20_472
*1347 FILLER_20_51
*1348 FILLER_20_55
*1349 FILLER_20_61
*1350 FILLER_20_68
*1351 FILLER_20_80
*1352 FILLER_20_85
*1353 FILLER_20_89
*1354 FILLER_20_97
*1355 FILLER_21_110
*1356 FILLER_21_113
*1357 FILLER_21_131
*1358 FILLER_21_138
*1359 FILLER_21_145
*1360 FILLER_21_157
*1361 FILLER_21_16
*1362 FILLER_21_165
*1363 FILLER_21_169
*1364 FILLER_21_174
*1365 FILLER_21_182
*1366 FILLER_21_201
*1367 FILLER_21_213
*1368 FILLER_21_22
*1369 FILLER_21_221
*1370 FILLER_21_225
*1371 FILLER_21_231
*1372 FILLER_21_241
*1373 FILLER_21_254
*1374 FILLER_21_266
*1375 FILLER_21_278
*1376 FILLER_21_28
*1377 FILLER_21_281
*1378 FILLER_21_287
*1379 FILLER_21_297
*1380 FILLER_21_3
*1381 FILLER_21_310
*1382 FILLER_21_334
*1383 FILLER_21_337
*1384 FILLER_21_341
*1385 FILLER_21_351
*1386 FILLER_21_360
*1387 FILLER_21_380
*1388 FILLER_21_393
*1389 FILLER_21_412
*1390 FILLER_21_429
*1391 FILLER_21_441
*1392 FILLER_21_447
*1393 FILLER_21_449
*1394 FILLER_21_45
*1395 FILLER_21_461
*1396 FILLER_21_54
*1397 FILLER_21_57
*1398 FILLER_21_66
*1399 FILLER_21_73
*1400 FILLER_21_8
*1401 FILLER_21_88
*1402 FILLER_21_99
*1403 FILLER_22_101
*1404 FILLER_22_112
*1405 FILLER_22_132
*1406 FILLER_22_141
*1407 FILLER_22_146
*1408 FILLER_22_15
*1409 FILLER_22_174
*1410 FILLER_22_194
*1411 FILLER_22_197
*1412 FILLER_22_208
*1413 FILLER_22_220
*1414 FILLER_22_229
*1415 FILLER_22_249
*1416 FILLER_22_253
*1417 FILLER_22_264
*1418 FILLER_22_27
*1419 FILLER_22_273
*1420 FILLER_22_280
*1421 FILLER_22_284
*1422 FILLER_22_29
*1423 FILLER_22_3
*1424 FILLER_22_301
*1425 FILLER_22_307
*1426 FILLER_22_309
*1427 FILLER_22_315
*1428 FILLER_22_319
*1429 FILLER_22_331
*1430 FILLER_22_341
*1431 FILLER_22_36
*1432 FILLER_22_361
*1433 FILLER_22_365
*1434 FILLER_22_376
*1435 FILLER_22_388
*1436 FILLER_22_400
*1437 FILLER_22_406
*1438 FILLER_22_412
*1439 FILLER_22_421
*1440 FILLER_22_432
*1441 FILLER_22_444
*1442 FILLER_22_451
*1443 FILLER_22_471
*1444 FILLER_22_56
*1445 FILLER_22_67
*1446 FILLER_22_76
*1447 FILLER_22_85
*1448 FILLER_22_97
*1449 FILLER_23_104
*1450 FILLER_23_110
*1451 FILLER_23_113
*1452 FILLER_23_117
*1453 FILLER_23_134
*1454 FILLER_23_141
*1455 FILLER_23_15
*1456 FILLER_23_153
*1457 FILLER_23_165
*1458 FILLER_23_169
*1459 FILLER_23_187
*1460 FILLER_23_196
*1461 FILLER_23_204
*1462 FILLER_23_222
*1463 FILLER_23_225
*1464 FILLER_23_243
*1465 FILLER_23_255
*1466 FILLER_23_261
*1467 FILLER_23_27
*1468 FILLER_23_278
*1469 FILLER_23_281
*1470 FILLER_23_288
*1471 FILLER_23_292
*1472 FILLER_23_296
*1473 FILLER_23_3
*1474 FILLER_23_304
*1475 FILLER_23_321
*1476 FILLER_23_33
*1477 FILLER_23_333
*1478 FILLER_23_337
*1479 FILLER_23_344
*1480 FILLER_23_356
*1481 FILLER_23_368
*1482 FILLER_23_37
*1483 FILLER_23_380
*1484 FILLER_23_393
*1485 FILLER_23_405
*1486 FILLER_23_410
*1487 FILLER_23_422
*1488 FILLER_23_429
*1489 FILLER_23_441
*1490 FILLER_23_447
*1491 FILLER_23_449
*1492 FILLER_23_46
*1493 FILLER_23_461
*1494 FILLER_23_54
*1495 FILLER_23_57
*1496 FILLER_23_63
*1497 FILLER_23_80
*1498 FILLER_23_92
*1499 FILLER_24_105
*1500 FILLER_24_111
*1501 FILLER_24_118
*1502 FILLER_24_127
*1503 FILLER_24_134
*1504 FILLER_24_141
*1505 FILLER_24_153
*1506 FILLER_24_165
*1507 FILLER_24_177
*1508 FILLER_24_189
*1509 FILLER_24_195
*1510 FILLER_24_197
*1511 FILLER_24_202
*1512 FILLER_24_21
*1513 FILLER_24_214
*1514 FILLER_24_226
*1515 FILLER_24_243
*1516 FILLER_24_251
*1517 FILLER_24_253
*1518 FILLER_24_265
*1519 FILLER_24_27
*1520 FILLER_24_277
*1521 FILLER_24_289
*1522 FILLER_24_29
*1523 FILLER_24_3
*1524 FILLER_24_301
*1525 FILLER_24_307
*1526 FILLER_24_309
*1527 FILLER_24_321
*1528 FILLER_24_333
*1529 FILLER_24_345
*1530 FILLER_24_357
*1531 FILLER_24_363
*1532 FILLER_24_365
*1533 FILLER_24_377
*1534 FILLER_24_389
*1535 FILLER_24_401
*1536 FILLER_24_41
*1537 FILLER_24_413
*1538 FILLER_24_419
*1539 FILLER_24_421
*1540 FILLER_24_433
*1541 FILLER_24_445
*1542 FILLER_24_451
*1543 FILLER_24_455
*1544 FILLER_24_467
*1545 FILLER_24_47
*1546 FILLER_24_471
*1547 FILLER_24_59
*1548 FILLER_24_71
*1549 FILLER_24_83
*1550 FILLER_24_85
*1551 FILLER_24_97
*1552 FILLER_25_105
*1553 FILLER_25_111
*1554 FILLER_25_113
*1555 FILLER_25_125
*1556 FILLER_25_137
*1557 FILLER_25_149
*1558 FILLER_25_161
*1559 FILLER_25_167
*1560 FILLER_25_169
*1561 FILLER_25_181
*1562 FILLER_25_193
*1563 FILLER_25_20
*1564 FILLER_25_205
*1565 FILLER_25_217
*1566 FILLER_25_223
*1567 FILLER_25_225
*1568 FILLER_25_237
*1569 FILLER_25_249
*1570 FILLER_25_261
*1571 FILLER_25_273
*1572 FILLER_25_279
*1573 FILLER_25_281
*1574 FILLER_25_293
*1575 FILLER_25_3
*1576 FILLER_25_305
*1577 FILLER_25_317
*1578 FILLER_25_32
*1579 FILLER_25_329
*1580 FILLER_25_335
*1581 FILLER_25_337
*1582 FILLER_25_349
*1583 FILLER_25_361
*1584 FILLER_25_373
*1585 FILLER_25_385
*1586 FILLER_25_391
*1587 FILLER_25_393
*1588 FILLER_25_405
*1589 FILLER_25_417
*1590 FILLER_25_429
*1591 FILLER_25_44
*1592 FILLER_25_441
*1593 FILLER_25_447
*1594 FILLER_25_449
*1595 FILLER_25_461
*1596 FILLER_25_467
*1597 FILLER_25_471
*1598 FILLER_25_57
*1599 FILLER_25_69
*1600 FILLER_25_8
*1601 FILLER_25_81
*1602 FILLER_25_93
*1603 FILLER_26_109
*1604 FILLER_26_121
*1605 FILLER_26_133
*1606 FILLER_26_139
*1607 FILLER_26_141
*1608 FILLER_26_153
*1609 FILLER_26_161
*1610 FILLER_26_166
*1611 FILLER_26_178
*1612 FILLER_26_190
*1613 FILLER_26_197
*1614 FILLER_26_204
*1615 FILLER_26_21
*1616 FILLER_26_212
*1617 FILLER_26_229
*1618 FILLER_26_241
*1619 FILLER_26_249
*1620 FILLER_26_253
*1621 FILLER_26_265
*1622 FILLER_26_27
*1623 FILLER_26_277
*1624 FILLER_26_289
*1625 FILLER_26_29
*1626 FILLER_26_3
*1627 FILLER_26_301
*1628 FILLER_26_307
*1629 FILLER_26_309
*1630 FILLER_26_321
*1631 FILLER_26_333
*1632 FILLER_26_345
*1633 FILLER_26_357
*1634 FILLER_26_363
*1635 FILLER_26_365
*1636 FILLER_26_377
*1637 FILLER_26_389
*1638 FILLER_26_401
*1639 FILLER_26_41
*1640 FILLER_26_413
*1641 FILLER_26_419
*1642 FILLER_26_421
*1643 FILLER_26_433
*1644 FILLER_26_441
*1645 FILLER_26_447
*1646 FILLER_26_455
*1647 FILLER_26_461
*1648 FILLER_26_468
*1649 FILLER_26_472
*1650 FILLER_26_53
*1651 FILLER_26_65
*1652 FILLER_26_77
*1653 FILLER_26_83
*1654 FILLER_26_85
*1655 FILLER_26_9
*1656 FILLER_26_97
*1657 FILLER_27_109
*1658 FILLER_27_113
*1659 FILLER_27_125
*1660 FILLER_27_132
*1661 FILLER_27_141
*1662 FILLER_27_146
*1663 FILLER_27_158
*1664 FILLER_27_166
*1665 FILLER_27_169
*1666 FILLER_27_17
*1667 FILLER_27_177
*1668 FILLER_27_194
*1669 FILLER_27_197
*1670 FILLER_27_202
*1671 FILLER_27_21
*1672 FILLER_27_214
*1673 FILLER_27_222
*1674 FILLER_27_225
*1675 FILLER_27_233
*1676 FILLER_27_237
*1677 FILLER_27_249
*1678 FILLER_27_253
*1679 FILLER_27_258
*1680 FILLER_27_26
*1681 FILLER_27_266
*1682 FILLER_27_272
*1683 FILLER_27_281
*1684 FILLER_27_289
*1685 FILLER_27_29
*1686 FILLER_27_293
*1687 FILLER_27_3
*1688 FILLER_27_305
*1689 FILLER_27_309
*1690 FILLER_27_314
*1691 FILLER_27_322
*1692 FILLER_27_328
*1693 FILLER_27_337
*1694 FILLER_27_343
*1695 FILLER_27_355
*1696 FILLER_27_363
*1697 FILLER_27_365
*1698 FILLER_27_37
*1699 FILLER_27_370
*1700 FILLER_27_377
*1701 FILLER_27_389
*1702 FILLER_27_393
*1703 FILLER_27_398
*1704 FILLER_27_406
*1705 FILLER_27_413
*1706 FILLER_27_419
*1707 FILLER_27_421
*1708 FILLER_27_429
*1709 FILLER_27_446
*1710 FILLER_27_449
*1711 FILLER_27_471
*1712 FILLER_27_48
*1713 FILLER_27_57
*1714 FILLER_27_62
*1715 FILLER_27_70
*1716 FILLER_27_76
*1717 FILLER_27_85