*SPEF "ieee 1481-1999"
*DESIGN "scan_controller"
*DATE "11:11:11 Fri 11 11, 1111"
*VENDOR "OpenRCX"
*PROGRAM "Parallel Extraction"
*VERSION "1.0"
*DESIGN_FLOW "NAME_SCOPE LOCAL" "PIN_CAP NONE"
*DIVIDER /
*DELIMITER :
*BUS_DELIMITER []
*T_UNIT 1 NS
*C_UNIT 1 PF
*R_UNIT 1 OHM
*L_UNIT 1 HENRY

*NAME_MAP
*1 active_select[0]
*2 active_select[1]
*3 active_select[2]
*4 active_select[3]
*5 active_select[4]
*6 active_select[5]
*7 active_select[6]
*8 active_select[7]
*9 active_select[8]
*10 clk
*11 driver_sel[0]
*12 driver_sel[1]
*13 inputs[0]
*14 inputs[1]
*15 inputs[2]
*16 inputs[3]
*17 inputs[4]
*18 inputs[5]
*19 inputs[6]
*20 inputs[7]
*21 la_scan_clk_in
*22 la_scan_data_in
*23 la_scan_data_out
*24 la_scan_latch_en
*25 la_scan_select
*26 net43
*27 net53
*28 net54
*29 net55
*30 net56
*31 net57
*32 net58
*33 net59
*34 net60
*35 net61
*36 net62
*37 net44
*38 net63
*39 net64
*40 net65
*41 net66
*42 net67
*43 net68
*44 net69
*45 net70
*46 net71
*47 net72
*48 net45
*49 net73
*50 net74
*51 net75
*52 net76
*53 net77
*54 net78
*55 net79
*56 net80
*57 net46
*58 net47
*59 net48
*60 net49
*61 net50
*62 net51
*63 net52
*64 outputs[0]
*65 outputs[1]
*66 outputs[2]
*67 outputs[3]
*68 outputs[4]
*69 outputs[5]
*70 outputs[6]
*71 outputs[7]
*72 ready
*73 reset
*74 scan_clk_in
*75 scan_clk_out
*76 scan_data_in
*77 scan_data_out
*78 scan_latch_en
*79 scan_select
*80 set_clk_div
*81 slow_clk
*84 _000_
*85 _001_
*86 _002_
*87 _003_
*88 _004_
*89 _005_
*90 _006_
*91 _007_
*92 _008_
*93 _009_
*94 _010_
*95 _011_
*96 _012_
*97 _013_
*98 _014_
*99 _015_
*100 _016_
*101 _017_
*102 _018_
*103 _019_
*104 _020_
*105 _021_
*106 _022_
*107 _023_
*108 _024_
*109 _025_
*110 _026_
*111 _027_
*112 _028_
*113 _029_
*114 _030_
*115 _031_
*116 _032_
*117 _033_
*118 _034_
*119 _035_
*120 _036_
*121 _037_
*122 _039_
*123 _041_
*124 _043_
*125 _044_
*126 _045_
*127 _046_
*128 _047_
*129 _048_
*130 _049_
*131 _050_
*132 _051_
*133 _052_
*134 _053_
*135 _054_
*136 _055_
*137 _056_
*138 _057_
*139 _058_
*140 _059_
*141 _060_
*142 _061_
*143 _062_
*144 _063_
*145 _064_
*146 _065_
*147 _066_
*148 _067_
*149 _068_
*150 _069_
*151 _070_
*152 _071_
*153 _072_
*154 _073_
*155 _074_
*156 _075_
*157 _076_
*158 _077_
*159 _078_
*160 _079_
*161 _080_
*162 _081_
*163 _082_
*164 _083_
*165 _084_
*166 _085_
*167 _086_
*168 _087_
*169 _088_
*170 _089_
*171 _090_
*172 _091_
*173 _092_
*174 _093_
*175 _094_
*176 _095_
*177 _096_
*178 _097_
*179 _098_
*180 _099_
*181 _100_
*182 _101_
*183 _102_
*184 _103_
*185 _104_
*186 _105_
*187 _106_
*188 _107_
*189 _108_
*190 _109_
*191 _110_
*192 _111_
*193 _112_
*194 _113_
*195 _114_
*196 _115_
*197 _116_
*198 _117_
*199 _118_
*200 _119_
*201 _120_
*202 _121_
*203 _122_
*204 _123_
*205 _124_
*206 _125_
*207 _126_
*208 _127_
*209 _128_
*210 _129_
*211 _130_
*212 _131_
*213 _132_
*214 _133_
*215 _134_
*216 _135_
*217 _136_
*218 _137_
*219 _138_
*220 _139_
*221 _140_
*222 _141_
*223 _142_
*224 _143_
*225 _144_
*226 _145_
*227 _146_
*228 _147_
*229 _148_
*230 _149_
*231 _150_
*232 _151_
*233 _152_
*234 _153_
*235 _154_
*236 _155_
*237 _156_
*238 _157_
*239 _158_
*240 _159_
*241 _160_
*242 _161_
*243 _162_
*244 _163_
*245 _164_
*246 _165_
*247 _166_
*248 _167_
*249 _168_
*250 _169_
*251 _170_
*252 _171_
*253 _172_
*254 _173_
*255 _174_
*256 _175_
*257 _176_
*258 _177_
*259 _178_
*260 _179_
*261 _180_
*262 _181_
*263 _182_
*264 _183_
*265 _184_
*266 _185_
*267 _186_
*268 _187_
*269 _188_
*270 _189_
*271 _190_
*272 _191_
*273 _192_
*274 _193_
*275 _194_
*276 _195_
*277 _196_
*278 _197_
*279 _198_
*280 _199_
*281 _200_
*282 _201_
*283 _202_
*284 _203_
*285 _204_
*286 _205_
*287 _206_
*288 _207_
*289 _208_
*290 _209_
*291 _210_
*292 _211_
*293 _212_
*294 _213_
*295 _214_
*296 _215_
*297 _216_
*298 _217_
*299 _218_
*300 _219_
*301 _220_
*302 _221_
*303 _222_
*304 _223_
*305 _224_
*306 _225_
*307 _226_
*308 _227_
*309 _228_
*310 _229_
*311 _230_
*312 _231_
*313 _232_
*314 _233_
*315 _234_
*316 _235_
*317 _236_
*318 _237_
*319 _238_
*320 _239_
*321 _240_
*322 _241_
*323 _242_
*324 _243_
*325 _244_
*326 _245_
*327 _246_
*328 _247_
*329 _248_
*330 _249_
*331 _250_
*332 _251_
*333 _252_
*334 _253_
*335 _254_
*336 _255_
*337 _256_
*338 _257_
*339 _258_
*340 _259_
*341 _260_
*342 _261_
*343 _262_
*344 _263_
*345 _264_
*346 _265_
*347 _266_
*348 _267_
*349 _268_
*350 _269_
*351 _270_
*352 _271_
*353 _272_
*354 _273_
*355 _274_
*356 _275_
*357 _276_
*358 _277_
*359 _278_
*360 _279_
*361 _280_
*362 _281_
*363 _282_
*364 _283_
*365 _284_
*366 _285_
*367 _286_
*368 _287_
*369 _288_
*370 _289_
*371 _290_
*372 _291_
*373 _292_
*374 _293_
*375 _294_
*376 _295_
*377 _296_
*378 _297_
*379 _298_
*380 _299_
*381 _300_
*382 _301_
*383 _302_
*384 _303_
*385 _304_
*386 _305_
*387 _306_
*388 _307_
*389 _308_
*390 _309_
*391 _310_
*392 _311_
*393 _312_
*394 _313_
*395 _314_
*396 _315_
*397 _316_
*398 _317_
*399 _318_
*400 _319_
*401 _320_
*402 _321_
*403 _322_
*404 _323_
*405 _324_
*406 _325_
*407 _326_
*408 _327_
*409 _328_
*410 _329_
*411 _330_
*412 _331_
*413 _332_
*414 _333_
*415 _334_
*416 _335_
*417 _336_
*418 _337_
*419 _338_
*420 _339_
*421 active
*422 aio_input_reg\[0\]
*423 aio_input_reg\[1\]
*424 aio_input_reg\[2\]
*425 aio_input_reg\[3\]
*426 aio_input_reg\[4\]
*427 aio_input_reg\[5\]
*428 aio_input_reg\[6\]
*429 aio_input_reg\[7\]
*430 aio_input_sh
*431 aio_input_shift\[0\]
*432 aio_input_shift\[1\]
*433 aio_input_shift\[2\]
*434 aio_input_shift\[3\]
*435 aio_input_shift\[4\]
*436 aio_input_shift\[5\]
*437 aio_input_shift\[6\]
*438 aio_input_shift\[7\]
*439 aio_input_sync\[0\]
*440 aio_input_sync\[1\]
*441 aio_input_sync\[2\]
*442 aio_input_sync\[3\]
*443 aio_input_sync\[4\]
*444 aio_input_sync\[5\]
*445 aio_input_sync\[6\]
*446 aio_input_sync\[7\]
*447 aio_output_cap
*448 aio_output_reg\[0\]
*449 aio_output_reg\[1\]
*450 aio_output_reg\[2\]
*451 aio_output_reg\[3\]
*452 aio_output_reg\[4\]
*453 aio_output_reg\[5\]
*454 aio_output_reg\[6\]
*455 aio_output_reg\[7\]
*456 aio_output_shift\[0\]
*457 aio_output_shift\[1\]
*458 aio_output_shift\[2\]
*459 aio_output_shift\[3\]
*460 aio_output_shift\[4\]
*461 aio_output_shift\[5\]
*462 aio_output_shift\[6\]
*463 aio_output_shift\[7\]
*464 bit_cnt\[0\]
*465 bit_cnt\[1\]
*466 bit_cnt\[2\]
*467 clk_divider_I\.active
*468 clk_divider_I\.ce
*469 clk_divider_I\.compare\[0\]
*470 clk_divider_I\.compare\[1\]
*471 clk_divider_I\.compare\[2\]
*472 clk_divider_I\.compare\[3\]
*473 clk_divider_I\.compare\[4\]
*474 clk_divider_I\.compare\[5\]
*475 clk_divider_I\.compare\[6\]
*476 clk_divider_I\.compare\[7\]
*477 clk_divider_I\.counter\[0\]
*478 clk_divider_I\.counter\[1\]
*479 clk_divider_I\.counter\[2\]
*480 clk_divider_I\.counter\[3\]
*481 clk_divider_I\.counter\[4\]
*482 clk_divider_I\.counter\[5\]
*483 clk_divider_I\.counter\[6\]
*484 clk_divider_I\.counter\[7\]
*485 clk_divider_I\.reset
*486 clk_divider_I\.set_now
*487 clk_divider_I\.set_sync\[0\]
*488 clk_divider_I\.set_sync\[1\]
*489 clknet_0_clk
*490 clknet_0_scan_clk_in
*491 clknet_1_0__leaf_scan_clk_in
*492 clknet_1_1__leaf_scan_clk_in
*493 clknet_3_0__leaf_clk
*494 clknet_3_1__leaf_clk
*495 clknet_3_2__leaf_clk
*496 clknet_3_3__leaf_clk
*497 clknet_3_4__leaf_clk
*498 clknet_3_5__leaf_clk
*499 clknet_3_6__leaf_clk
*500 clknet_3_7__leaf_clk
*501 int_scan_clk_out
*502 int_scan_data_out
*503 int_scan_latch_en
*504 int_scan_select
*505 net1
*506 net10
*507 net11
*508 net12
*509 net13
*510 net14
*511 net15
*512 net16
*513 net17
*514 net18
*515 net19
*516 net2
*517 net20
*518 net21
*519 net22
*520 net23
*521 net24
*522 net25
*523 net26
*524 net27
*525 net28
*526 net29
*527 net3
*528 net30
*529 net31
*530 net32
*531 net33
*532 net34
*533 net35
*534 net36
*535 net37
*536 net38
*537 net39
*538 net4
*539 net40
*540 net41
*541 net42
*542 net5
*543 net6
*544 net7
*545 net8
*546 net81
*547 net82
*548 net83
*549 net84
*550 net85
*551 net86
*552 net87
*553 net88
*554 net89
*555 net9
*556 net90
*557 net91
*558 proj_cnt\[0\]
*559 proj_cnt\[1\]
*560 proj_cnt\[2\]
*561 proj_cnt\[3\]
*562 proj_cnt\[4\]
*563 proj_cnt\[5\]
*564 proj_cnt\[6\]
*565 proj_cnt\[7\]
*566 proj_cnt\[8\]
*567 rst_shift\[0\]
*568 rst_shift\[1\]
*569 state\[0\]
*570 state\[12\]
*571 state\[13\]
*572 state\[1\]
*573 state\[2\]
*574 state\[3\]
*575 state\[4\]
*576 state\[5\]
*577 state\[6\]
*578 state\[8\]
*579 state\[9\]
*580 ws_cfg\[0\]
*581 ws_cfg\[1\]
*582 ws_cfg\[2\]
*583 ws_cfg\[3\]
*584 ws_cfg\[4\]
*585 ws_cfg\[5\]
*586 ws_cfg\[6\]
*587 ws_cfg\[7\]
*588 ws_cnt\[0\]
*589 ws_cnt\[1\]
*590 ws_cnt\[2\]
*591 ws_cnt\[3\]
*592 ws_cnt\[4\]
*593 ws_cnt\[5\]
*594 ws_cnt\[6\]
*595 ws_cnt\[7\]
*596 ws_set_now
*597 ws_set_sync\[0\]
*598 ws_set_sync\[1\]
*599 ws_set_sync\[2\]
*600 ANTENNA_1
*601 ANTENNA_2
*602 FILLER_0_110
*603 FILLER_0_113
*604 FILLER_0_118
*605 FILLER_0_126
*606 FILLER_0_132
*607 FILLER_0_141
*608 FILLER_0_146
*609 FILLER_0_15
*610 FILLER_0_154
*611 FILLER_0_159
*612 FILLER_0_166
*613 FILLER_0_169
*614 FILLER_0_174
*615 FILLER_0_188
*616 FILLER_0_197
*617 FILLER_0_202
*618 FILLER_0_210
*619 FILLER_0_216
*620 FILLER_0_225
*621 FILLER_0_230
*622 FILLER_0_238
*623 FILLER_0_250
*624 FILLER_0_253
*625 FILLER_0_258
*626 FILLER_0_266
*627 FILLER_0_27
*628 FILLER_0_272
*629 FILLER_0_281
*630 FILLER_0_287
*631 FILLER_0_29
*632 FILLER_0_299
*633 FILLER_0_3
*634 FILLER_0_307
*635 FILLER_0_309
*636 FILLER_0_314
*637 FILLER_0_321
*638 FILLER_0_333
*639 FILLER_0_337
*640 FILLER_0_34
*641 FILLER_0_343
*642 FILLER_0_355
*643 FILLER_0_363
*644 FILLER_0_365
*645 FILLER_0_373
*646 FILLER_0_378
*647 FILLER_0_390
*648 FILLER_0_393
*649 FILLER_0_398
*650 FILLER_0_406
*651 FILLER_0_41
*652 FILLER_0_412
*653 FILLER_0_421
*654 FILLER_0_426
*655 FILLER_0_438
*656 FILLER_0_446
*657 FILLER_0_449
*658 FILLER_0_455
*659 FILLER_0_459
*660 FILLER_0_463
*661 FILLER_0_471
*662 FILLER_0_53
*663 FILLER_0_57
*664 FILLER_0_63
*665 FILLER_0_71
*666 FILLER_0_76
*667 FILLER_0_8
*668 FILLER_0_85
*669 FILLER_0_93
*670 FILLER_0_98
*671 FILLER_10_103
*672 FILLER_10_115
*673 FILLER_10_127
*674 FILLER_10_131
*675 FILLER_10_138
*676 FILLER_10_141
*677 FILLER_10_173
*678 FILLER_10_193
*679 FILLER_10_197
*680 FILLER_10_215
*681 FILLER_10_230
*682 FILLER_10_250
*683 FILLER_10_253
*684 FILLER_10_26
*685 FILLER_10_264
*686 FILLER_10_275
*687 FILLER_10_283
*688 FILLER_10_29
*689 FILLER_10_292
*690 FILLER_10_3
*691 FILLER_10_304
*692 FILLER_10_309
*693 FILLER_10_333
*694 FILLER_10_337
*695 FILLER_10_341
*696 FILLER_10_348
*697 FILLER_10_360
*698 FILLER_10_365
*699 FILLER_10_371
*700 FILLER_10_391
*701 FILLER_10_404
*702 FILLER_10_416
*703 FILLER_10_421
*704 FILLER_10_433
*705 FILLER_10_445
*706 FILLER_10_457
*707 FILLER_10_465
*708 FILLER_10_47
*709 FILLER_10_471
*710 FILLER_10_59
*711 FILLER_10_69
*712 FILLER_10_82
*713 FILLER_10_85
*714 FILLER_10_9
*715 FILLER_11_108
*716 FILLER_11_113
*717 FILLER_11_121
*718 FILLER_11_144
*719 FILLER_11_164
*720 FILLER_11_169
*721 FILLER_11_177
*722 FILLER_11_194
*723 FILLER_11_20
*724 FILLER_11_202
*725 FILLER_11_206
*726 FILLER_11_218
*727 FILLER_11_225
*728 FILLER_11_257
*729 FILLER_11_272
*730 FILLER_11_281
*731 FILLER_11_286
*732 FILLER_11_293
*733 FILLER_11_299
*734 FILLER_11_3
*735 FILLER_11_316
*736 FILLER_11_329
*737 FILLER_11_335
*738 FILLER_11_337
*739 FILLER_11_348
*740 FILLER_11_360
*741 FILLER_11_37
*742 FILLER_11_381
*743 FILLER_11_388
*744 FILLER_11_393
*745 FILLER_11_411
*746 FILLER_11_423
*747 FILLER_11_435
*748 FILLER_11_447
*749 FILLER_11_449
*750 FILLER_11_461
*751 FILLER_11_49
*752 FILLER_11_55
*753 FILLER_11_57
*754 FILLER_11_63
*755 FILLER_11_76
*756 FILLER_11_8
*757 FILLER_11_96
*758 FILLER_12_109
*759 FILLER_12_13
*760 FILLER_12_131
*761 FILLER_12_138
*762 FILLER_12_141
*763 FILLER_12_146
*764 FILLER_12_178
*765 FILLER_12_186
*766 FILLER_12_193
*767 FILLER_12_197
*768 FILLER_12_203
*769 FILLER_12_207
*770 FILLER_12_224
*771 FILLER_12_232
*772 FILLER_12_250
*773 FILLER_12_253
*774 FILLER_12_26
*775 FILLER_12_264
*776 FILLER_12_288
*777 FILLER_12_29
*778 FILLER_12_298
*779 FILLER_12_3
*780 FILLER_12_305
*781 FILLER_12_309
*782 FILLER_12_322
*783 FILLER_12_339
*784 FILLER_12_343
*785 FILLER_12_360
*786 FILLER_12_365
*787 FILLER_12_377
*788 FILLER_12_397
*789 FILLER_12_410
*790 FILLER_12_418
*791 FILLER_12_42
*792 FILLER_12_421
*793 FILLER_12_433
*794 FILLER_12_445
*795 FILLER_12_457
*796 FILLER_12_465
*797 FILLER_12_471
*798 FILLER_12_50
*799 FILLER_12_73
*800 FILLER_12_82
*801 FILLER_12_85
*802 FILLER_12_9
*803 FILLER_12_96
*804 FILLER_13_105
*805 FILLER_13_111
*806 FILLER_13_113
*807 FILLER_13_119
*808 FILLER_13_125
*809 FILLER_13_138
*810 FILLER_13_15
*811 FILLER_13_153
*812 FILLER_13_166
*813 FILLER_13_169
*814 FILLER_13_173
*815 FILLER_13_190
*816 FILLER_13_194
*817 FILLER_13_211
*818 FILLER_13_223
*819 FILLER_13_225
*820 FILLER_13_23
*821 FILLER_13_243
*822 FILLER_13_250
*823 FILLER_13_256
*824 FILLER_13_266
*825 FILLER_13_278
*826 FILLER_13_281
*827 FILLER_13_285
*828 FILLER_13_3
*829 FILLER_13_306
*830 FILLER_13_318
*831 FILLER_13_324
*832 FILLER_13_337
*833 FILLER_13_344
*834 FILLER_13_351
*835 FILLER_13_363
*836 FILLER_13_373
*837 FILLER_13_386
*838 FILLER_13_393
*839 FILLER_13_405
*840 FILLER_13_417
*841 FILLER_13_429
*842 FILLER_13_43
*843 FILLER_13_438
*844 FILLER_13_446
*845 FILLER_13_449
*846 FILLER_13_461
*847 FILLER_13_54
*848 FILLER_13_57
*849 FILLER_13_62
*850 FILLER_13_82
*851 FILLER_13_88
*852 FILLER_14_100
*853 FILLER_14_121
*854 FILLER_14_134
*855 FILLER_14_141
*856 FILLER_14_146
*857 FILLER_14_15
*858 FILLER_14_150
*859 FILLER_14_154
*860 FILLER_14_178
*861 FILLER_14_184
*862 FILLER_14_194
*863 FILLER_14_197
*864 FILLER_14_209
*865 FILLER_14_235
*866 FILLER_14_242
*867 FILLER_14_250
*868 FILLER_14_253
*869 FILLER_14_26
*870 FILLER_14_263
*871 FILLER_14_267
*872 FILLER_14_271
*873 FILLER_14_278
*874 FILLER_14_29
*875 FILLER_14_3
*876 FILLER_14_303
*877 FILLER_14_307
*878 FILLER_14_309
*879 FILLER_14_317
*880 FILLER_14_325
*881 FILLER_14_333
*882 FILLER_14_343
*883 FILLER_14_35
*884 FILLER_14_351
*885 FILLER_14_359
*886 FILLER_14_363
*887 FILLER_14_365
*888 FILLER_14_389
*889 FILLER_14_39
*890 FILLER_14_409
*891 FILLER_14_417
*892 FILLER_14_421
*893 FILLER_14_425
*894 FILLER_14_442
*895 FILLER_14_449
*896 FILLER_14_456
*897 FILLER_14_468
*898 FILLER_14_472
*899 FILLER_14_56
*900 FILLER_14_76
*901 FILLER_14_85
*902 FILLER_14_96
*903 FILLER_15_110
*904 FILLER_15_113
*905 FILLER_15_135
*906 FILLER_15_147
*907 FILLER_15_156
*908 FILLER_15_166
*909 FILLER_15_169
*910 FILLER_15_180
*911 FILLER_15_192
*912 FILLER_15_204
*913 FILLER_15_21
*914 FILLER_15_217
*915 FILLER_15_223
*916 FILLER_15_225
*917 FILLER_15_230
*918 FILLER_15_242
*919 FILLER_15_248
*920 FILLER_15_256
*921 FILLER_15_277
*922 FILLER_15_281
*923 FILLER_15_287
*924 FILLER_15_291
*925 FILLER_15_3
*926 FILLER_15_319
*927 FILLER_15_329
*928 FILLER_15_335
*929 FILLER_15_337
*930 FILLER_15_342
*931 FILLER_15_354
*932 FILLER_15_375
*933 FILLER_15_388
*934 FILLER_15_39
*935 FILLER_15_393
*936 FILLER_15_399
*937 FILLER_15_406
*938 FILLER_15_413
*939 FILLER_15_419
*940 FILLER_15_426
*941 FILLER_15_446
*942 FILLER_15_449
*943 FILLER_15_457
*944 FILLER_15_469
*945 FILLER_15_51
*946 FILLER_15_55
*947 FILLER_15_57
*948 FILLER_15_81
*949 FILLER_15_9
*950 FILLER_15_95
*951 FILLER_16_111
*952 FILLER_16_122
*953 FILLER_16_128
*954 FILLER_16_132
*955 FILLER_16_141
*956 FILLER_16_147
*957 FILLER_16_15
*958 FILLER_16_151
*959 FILLER_16_176
*960 FILLER_16_183
*961 FILLER_16_19
*962 FILLER_16_195
*963 FILLER_16_197
*964 FILLER_16_209
*965 FILLER_16_214
*966 FILLER_16_221
*967 FILLER_16_229
*968 FILLER_16_250
*969 FILLER_16_253
*970 FILLER_16_259
*971 FILLER_16_26
*972 FILLER_16_267
*973 FILLER_16_272
*974 FILLER_16_281
*975 FILLER_16_288
*976 FILLER_16_29
*977 FILLER_16_3
*978 FILLER_16_300
*979 FILLER_16_309
*980 FILLER_16_313
*981 FILLER_16_335
*982 FILLER_16_343
*983 FILLER_16_35
*984 FILLER_16_362
*985 FILLER_16_365
*986 FILLER_16_373
*987 FILLER_16_383
*988 FILLER_16_392
*989 FILLER_16_404
*990 FILLER_16_412
*991 FILLER_16_418
*992 FILLER_16_421
*993 FILLER_16_434
*994 FILLER_16_444
*995 FILLER_16_453
*996 FILLER_16_460
*997 FILLER_16_471
*998 FILLER_16_60
*999 FILLER_16_73
*1000 FILLER_16_82
*1001 FILLER_16_85
*1002 FILLER_17_103
*1003 FILLER_17_110
*1004 FILLER_17_113
*1005 FILLER_17_124
*1006 FILLER_17_136
*1007 FILLER_17_148
*1008 FILLER_17_15
*1009 FILLER_17_154
*1010 FILLER_17_158
*1011 FILLER_17_166
*1012 FILLER_17_169
*1013 FILLER_17_180
*1014 FILLER_17_19
*1015 FILLER_17_192
*1016 FILLER_17_200
*1017 FILLER_17_222
*1018 FILLER_17_225
*1019 FILLER_17_23
*1020 FILLER_17_231
*1021 FILLER_17_243
*1022 FILLER_17_254
*1023 FILLER_17_278
*1024 FILLER_17_281
*1025 FILLER_17_3
*1026 FILLER_17_304
*1027 FILLER_17_313
*1028 FILLER_17_317
*1029 FILLER_17_321
*1030 FILLER_17_333
*1031 FILLER_17_337
*1032 FILLER_17_348
*1033 FILLER_17_361
*1034 FILLER_17_370
*1035 FILLER_17_376
*1036 FILLER_17_380
*1037 FILLER_17_390
*1038 FILLER_17_393
*1039 FILLER_17_403
*1040 FILLER_17_415
*1041 FILLER_17_426
*1042 FILLER_17_446
*1043 FILLER_17_449
*1044 FILLER_17_456
*1045 FILLER_17_463
*1046 FILLER_17_47
*1047 FILLER_17_471
*1048 FILLER_17_54
*1049 FILLER_17_57
*1050 FILLER_17_68
*1051 FILLER_17_82
*1052 FILLER_17_90
*1053 FILLER_17_96
*1054 FILLER_18_100
*1055 FILLER_18_111
*1056 FILLER_18_126
*1057 FILLER_18_138
*1058 FILLER_18_141
*1059 FILLER_18_15
*1060 FILLER_18_153
*1061 FILLER_18_160
*1062 FILLER_18_169
*1063 FILLER_18_176
*1064 FILLER_18_188
*1065 FILLER_18_197
*1066 FILLER_18_214
*1067 FILLER_18_226
*1068 FILLER_18_237
*1069 FILLER_18_249
*1070 FILLER_18_253
*1071 FILLER_18_26
*1072 FILLER_18_265
*1073 FILLER_18_287
*1074 FILLER_18_29
*1075 FILLER_18_296
*1076 FILLER_18_3
*1077 FILLER_18_303
*1078 FILLER_18_307
*1079 FILLER_18_309
*1080 FILLER_18_321
*1081 FILLER_18_341
*1082 FILLER_18_349
*1083 FILLER_18_361
*1084 FILLER_18_365
*1085 FILLER_18_377
*1086 FILLER_18_392
*1087 FILLER_18_396
*1088 FILLER_18_404
*1089 FILLER_18_411
*1090 FILLER_18_419
*1091 FILLER_18_421
*1092 FILLER_18_427
*1093 FILLER_18_441
*1094 FILLER_18_451
*1095 FILLER_18_463
*1096 FILLER_18_47
*1097 FILLER_18_471
*1098 FILLER_18_54
*1099 FILLER_18_65
*1100 FILLER_18_73
*1101 FILLER_18_81
*1102 FILLER_18_85
*1103 FILLER_18_91
*1104 FILLER_19_110
*1105 FILLER_19_113
*1106 FILLER_19_117
*1107 FILLER_19_125
*1108 FILLER_19_132
*1109 FILLER_19_144
*1110 FILLER_19_15
*1111 FILLER_19_163
*1112 FILLER_19_167
*1113 FILLER_19_169
*1114 FILLER_19_178
*1115 FILLER_19_190
*1116 FILLER_19_202
*1117 FILLER_19_209
*1118 FILLER_19_222
*1119 FILLER_19_225
*1120 FILLER_19_23
*1121 FILLER_19_233
*1122 FILLER_19_242
*1123 FILLER_19_249
*1124 FILLER_19_253
*1125 FILLER_19_257
*1126 FILLER_19_269
*1127 FILLER_19_277
*1128 FILLER_19_281
*1129 FILLER_19_3
*1130 FILLER_19_30
*1131 FILLER_19_303
*1132 FILLER_19_323
*1133 FILLER_19_335
*1134 FILLER_19_337
*1135 FILLER_19_345
*1136 FILLER_19_357
*1137 FILLER_19_369
*1138 FILLER_19_390
*1139 FILLER_19_393
*1140 FILLER_19_397
*1141 FILLER_19_403
*1142 FILLER_19_410
*1143 FILLER_19_416
*1144 FILLER_19_420
*1145 FILLER_19_440
*1146 FILLER_19_449
*1147 FILLER_19_458
*1148 FILLER_19_466
*1149 FILLER_19_471
*1150 FILLER_19_50
*1151 FILLER_19_57
*1152 FILLER_19_64
*1153 FILLER_19_73
*1154 FILLER_19_85
*1155 FILLER_19_93
*1156 FILLER_1_101
*1157 FILLER_1_109
*1158 FILLER_1_113
*1159 FILLER_1_125
*1160 FILLER_1_132
*1161 FILLER_1_144
*1162 FILLER_1_156
*1163 FILLER_1_162
*1164 FILLER_1_166
*1165 FILLER_1_169
*1166 FILLER_1_196
*1167 FILLER_1_20
*1168 FILLER_1_221
*1169 FILLER_1_225
*1170 FILLER_1_240
*1171 FILLER_1_252
*1172 FILLER_1_264
*1173 FILLER_1_276
*1174 FILLER_1_281
*1175 FILLER_1_293
*1176 FILLER_1_3
*1177 FILLER_1_305
*1178 FILLER_1_317
*1179 FILLER_1_32
*1180 FILLER_1_329
*1181 FILLER_1_335
*1182 FILLER_1_337
*1183 FILLER_1_349
*1184 FILLER_1_361
*1185 FILLER_1_373
*1186 FILLER_1_382
*1187 FILLER_1_390
*1188 FILLER_1_393
*1189 FILLER_1_405
*1190 FILLER_1_417
*1191 FILLER_1_429
*1192 FILLER_1_44
*1193 FILLER_1_441
*1194 FILLER_1_447
*1195 FILLER_1_449
*1196 FILLER_1_461
*1197 FILLER_1_467
*1198 FILLER_1_471
*1199 FILLER_1_51
*1200 FILLER_1_55
*1201 FILLER_1_57
*1202 FILLER_1_69
*1203 FILLER_1_73
*1204 FILLER_1_77
*1205 FILLER_1_8
*1206 FILLER_1_89
*1207 FILLER_20_104
*1208 FILLER_20_124
*1209 FILLER_20_133
*1210 FILLER_20_139
*1211 FILLER_20_141
*1212 FILLER_20_145
*1213 FILLER_20_15
*1214 FILLER_20_153
*1215 FILLER_20_173
*1216 FILLER_20_180
*1217 FILLER_20_192
*1218 FILLER_20_197
*1219 FILLER_20_203
*1220 FILLER_20_207
*1221 FILLER_20_214
*1222 FILLER_20_227
*1223 FILLER_20_236
*1224 FILLER_20_243
*1225 FILLER_20_251
*1226 FILLER_20_253
*1227 FILLER_20_26
*1228 FILLER_20_265
*1229 FILLER_20_289
*1230 FILLER_20_29
*1231 FILLER_20_296
*1232 FILLER_20_3
*1233 FILLER_20_309
*1234 FILLER_20_321
*1235 FILLER_20_325
*1236 FILLER_20_329
*1237 FILLER_20_349
*1238 FILLER_20_357
*1239 FILLER_20_363
*1240 FILLER_20_365
*1241 FILLER_20_373
*1242 FILLER_20_38
*1243 FILLER_20_380
*1244 FILLER_20_400
*1245 FILLER_20_411
*1246 FILLER_20_418
*1247 FILLER_20_421
*1248 FILLER_20_428
*1249 FILLER_20_438
*1250 FILLER_20_449
*1251 FILLER_20_456
*1252 FILLER_20_468
*1253 FILLER_20_472
*1254 FILLER_20_58
*1255 FILLER_20_67
*1256 FILLER_20_74
*1257 FILLER_20_82
*1258 FILLER_20_85
*1259 FILLER_20_97
*1260 FILLER_21_101
*1261 FILLER_21_110
*1262 FILLER_21_113
*1263 FILLER_21_131
*1264 FILLER_21_143
*1265 FILLER_21_151
*1266 FILLER_21_162
*1267 FILLER_21_169
*1268 FILLER_21_176
*1269 FILLER_21_188
*1270 FILLER_21_20
*1271 FILLER_21_200
*1272 FILLER_21_222
*1273 FILLER_21_225
*1274 FILLER_21_247
*1275 FILLER_21_259
*1276 FILLER_21_271
*1277 FILLER_21_279
*1278 FILLER_21_281
*1279 FILLER_21_289
*1280 FILLER_21_296
*1281 FILLER_21_3
*1282 FILLER_21_308
*1283 FILLER_21_32
*1284 FILLER_21_320
*1285 FILLER_21_326
*1286 FILLER_21_334
*1287 FILLER_21_337
*1288 FILLER_21_345
*1289 FILLER_21_354
*1290 FILLER_21_366
*1291 FILLER_21_378
*1292 FILLER_21_388
*1293 FILLER_21_39
*1294 FILLER_21_393
*1295 FILLER_21_402
*1296 FILLER_21_409
*1297 FILLER_21_425
*1298 FILLER_21_445
*1299 FILLER_21_449
*1300 FILLER_21_456
*1301 FILLER_21_468
*1302 FILLER_21_472
*1303 FILLER_21_50
*1304 FILLER_21_57
*1305 FILLER_21_64
*1306 FILLER_21_76
*1307 FILLER_21_8
*1308 FILLER_21_88
*1309 FILLER_21_96
*1310 FILLER_22_110
*1311 FILLER_22_119
*1312 FILLER_22_131
*1313 FILLER_22_139
*1314 FILLER_22_141
*1315 FILLER_22_149
*1316 FILLER_22_15
*1317 FILLER_22_154
*1318 FILLER_22_174
*1319 FILLER_22_186
*1320 FILLER_22_19
*1321 FILLER_22_194
*1322 FILLER_22_197
*1323 FILLER_22_209
*1324 FILLER_22_221
*1325 FILLER_22_23
*1326 FILLER_22_230
*1327 FILLER_22_238
*1328 FILLER_22_250
*1329 FILLER_22_253
*1330 FILLER_22_264
*1331 FILLER_22_27
*1332 FILLER_22_276
*1333 FILLER_22_288
*1334 FILLER_22_29
*1335 FILLER_22_3
*1336 FILLER_22_300
*1337 FILLER_22_309
*1338 FILLER_22_315
*1339 FILLER_22_325
*1340 FILLER_22_345
*1341 FILLER_22_354
*1342 FILLER_22_362
*1343 FILLER_22_365
*1344 FILLER_22_377
*1345 FILLER_22_382
*1346 FILLER_22_391
*1347 FILLER_22_399
*1348 FILLER_22_41
*1349 FILLER_22_411
*1350 FILLER_22_419
*1351 FILLER_22_421
*1352 FILLER_22_427
*1353 FILLER_22_447
*1354 FILLER_22_45
*1355 FILLER_22_456
*1356 FILLER_22_464
*1357 FILLER_22_471
*1358 FILLER_22_51
*1359 FILLER_22_63
*1360 FILLER_22_75
*1361 FILLER_22_83
*1362 FILLER_22_85
*1363 FILLER_22_93
*1364 FILLER_23_105
*1365 FILLER_23_111
*1366 FILLER_23_113
*1367 FILLER_23_118
*1368 FILLER_23_130
*1369 FILLER_23_142
*1370 FILLER_23_15
*1371 FILLER_23_154
*1372 FILLER_23_163
*1373 FILLER_23_167
*1374 FILLER_23_169
*1375 FILLER_23_181
*1376 FILLER_23_193
*1377 FILLER_23_205
*1378 FILLER_23_217
*1379 FILLER_23_223
*1380 FILLER_23_225
*1381 FILLER_23_237
*1382 FILLER_23_257
*1383 FILLER_23_269
*1384 FILLER_23_27
*1385 FILLER_23_277
*1386 FILLER_23_281
*1387 FILLER_23_293
*1388 FILLER_23_3
*1389 FILLER_23_305
*1390 FILLER_23_317
*1391 FILLER_23_329
*1392 FILLER_23_335
*1393 FILLER_23_337
*1394 FILLER_23_349
*1395 FILLER_23_361
*1396 FILLER_23_373
*1397 FILLER_23_385
*1398 FILLER_23_39
*1399 FILLER_23_391
*1400 FILLER_23_393
*1401 FILLER_23_405
*1402 FILLER_23_417
*1403 FILLER_23_429
*1404 FILLER_23_434
*1405 FILLER_23_446
*1406 FILLER_23_449
*1407 FILLER_23_461
*1408 FILLER_23_51
*1409 FILLER_23_55
*1410 FILLER_23_57
*1411 FILLER_23_69
*1412 FILLER_23_81
*1413 FILLER_23_93
*1414 FILLER_24_109
*1415 FILLER_24_121
*1416 FILLER_24_133
*1417 FILLER_24_139
*1418 FILLER_24_141
*1419 FILLER_24_153
*1420 FILLER_24_165
*1421 FILLER_24_177
*1422 FILLER_24_189
*1423 FILLER_24_195
*1424 FILLER_24_197
*1425 FILLER_24_209
*1426 FILLER_24_21
*1427 FILLER_24_221
*1428 FILLER_24_233
*1429 FILLER_24_245
*1430 FILLER_24_251
*1431 FILLER_24_253
*1432 FILLER_24_265
*1433 FILLER_24_27
*1434 FILLER_24_277
*1435 FILLER_24_289
*1436 FILLER_24_29
*1437 FILLER_24_3
*1438 FILLER_24_301
*1439 FILLER_24_307
*1440 FILLER_24_309
*1441 FILLER_24_321
*1442 FILLER_24_333
*1443 FILLER_24_345
*1444 FILLER_24_357
*1445 FILLER_24_363
*1446 FILLER_24_365
*1447 FILLER_24_377
*1448 FILLER_24_389
*1449 FILLER_24_401
*1450 FILLER_24_41
*1451 FILLER_24_413
*1452 FILLER_24_419
*1453 FILLER_24_421
*1454 FILLER_24_433
*1455 FILLER_24_445
*1456 FILLER_24_457
*1457 FILLER_24_469
*1458 FILLER_24_53
*1459 FILLER_24_65
*1460 FILLER_24_77
*1461 FILLER_24_83
*1462 FILLER_24_85
*1463 FILLER_24_9
*1464 FILLER_24_97
*1465 FILLER_25_105
*1466 FILLER_25_111
*1467 FILLER_25_113
*1468 FILLER_25_125
*1469 FILLER_25_137
*1470 FILLER_25_149
*1471 FILLER_25_161
*1472 FILLER_25_167
*1473 FILLER_25_169
*1474 FILLER_25_181
*1475 FILLER_25_193
*1476 FILLER_25_20
*1477 FILLER_25_205
*1478 FILLER_25_217
*1479 FILLER_25_223
*1480 FILLER_25_225
*1481 FILLER_25_237
*1482 FILLER_25_249
*1483 FILLER_25_261
*1484 FILLER_25_273
*1485 FILLER_25_279
*1486 FILLER_25_281
*1487 FILLER_25_293
*1488 FILLER_25_3
*1489 FILLER_25_305
*1490 FILLER_25_317
*1491 FILLER_25_32
*1492 FILLER_25_329
*1493 FILLER_25_335
*1494 FILLER_25_337
*1495 FILLER_25_349
*1496 FILLER_25_361
*1497 FILLER_25_373
*1498 FILLER_25_385
*1499 FILLER_25_391
*1500 FILLER_25_393
*1501 FILLER_25_405
*1502 FILLER_25_417
*1503 FILLER_25_429
*1504 FILLER_25_44
*1505 FILLER_25_441
*1506 FILLER_25_447
*1507 FILLER_25_449
*1508 FILLER_25_461
*1509 FILLER_25_467
*1510 FILLER_25_471
*1511 FILLER_25_57
*1512 FILLER_25_69
*1513 FILLER_25_8
*1514 FILLER_25_81
*1515 FILLER_25_93
*1516 FILLER_26_109
*1517 FILLER_26_121
*1518 FILLER_26_133
*1519 FILLER_26_139
*1520 FILLER_26_141
*1521 FILLER_26_153
*1522 FILLER_26_165
*1523 FILLER_26_177
*1524 FILLER_26_189
*1525 FILLER_26_195
*1526 FILLER_26_197
*1527 FILLER_26_202
*1528 FILLER_26_21
*1529 FILLER_26_214
*1530 FILLER_26_226
*1531 FILLER_26_238
*1532 FILLER_26_250
*1533 FILLER_26_253
*1534 FILLER_26_265
*1535 FILLER_26_27
*1536 FILLER_26_277
*1537 FILLER_26_289
*1538 FILLER_26_29
*1539 FILLER_26_3
*1540 FILLER_26_301
*1541 FILLER_26_307
*1542 FILLER_26_309
*1543 FILLER_26_321
*1544 FILLER_26_333
*1545 FILLER_26_345
*1546 FILLER_26_351
*1547 FILLER_26_363
*1548 FILLER_26_365
*1549 FILLER_26_377
*1550 FILLER_26_389
*1551 FILLER_26_401
*1552 FILLER_26_41
*1553 FILLER_26_413
*1554 FILLER_26_419
*1555 FILLER_26_421
*1556 FILLER_26_433
*1557 FILLER_26_445
*1558 FILLER_26_457
*1559 FILLER_26_464
*1560 FILLER_26_471
*1561 FILLER_26_53
*1562 FILLER_26_65
*1563 FILLER_26_77
*1564 FILLER_26_83
*1565 FILLER_26_85
*1566 FILLER_26_9
*1567 FILLER_26_97
*1568 FILLER_27_109
*1569 FILLER_27_113
*1570 FILLER_27_125
*1571 FILLER_27_132
*1572 FILLER_27_141
*1573 FILLER_27_146
*1574 FILLER_27_158
*1575 FILLER_27_166
*1576 FILLER_27_169
*1577 FILLER_27_17
*1578 FILLER_27_177
*1579 FILLER_27_182
*1580 FILLER_27_194
*1581 FILLER_27_197
*1582 FILLER_27_202
*1583 FILLER_27_21
*1584 FILLER_27_210
*1585 FILLER_27_217
*1586 FILLER_27_223
*1587 FILLER_27_225
*1588 FILLER_27_233
*1589 FILLER_27_237
*1590 FILLER_27_249
*1591 FILLER_27_253
*1592 FILLER_27_258
*1593 FILLER_27_26
*1594 FILLER_27_266
*1595 FILLER_27_272
*1596 FILLER_27_281
*1597 FILLER_27_289
*1598 FILLER_27_29
*1599 FILLER_27_293
*1600 FILLER_27_3
*1601 FILLER_27_305
*1602 FILLER_27_309
*1603 FILLER_27_314
*1604 FILLER_27_322
*1605 FILLER_27_328
*1606 FILLER_27_337
*1607 FILLER_27_343
*1608 FILLER_27_355
*1609 FILLER_27_363
*1610 FILLER_27_365
*1611 FILLER_27_37
*1612 FILLER_27_370
*1613 FILLER_27_377
*1614 FILLER_27_389
*1615 FILLER_27_393
*1616 FILLER_27_398
*1617 FILLER_27_406
*1618 FILLER_27_413
*1619 FILLER_27_419
*1620 FILLER_27_42
*1621 FILLER_27_421
*1622 FILLER_27_429
*1623 FILLER_27_434
*1624 FILLER_27_446
*1625 FILLER_27_449
*1626 FILLER_27_454
*1627 FILLER_27_463
*1628 FILLER_27_471
*1629 FILLER_27_54
*1630 FILLER_27_57
*1631 FILLER_27_62
*1632 FILLER_27_70
*1633 FILLER_27_76
*1634 FILLER_27_85
*1635 FILLER_27_9
*1636 FILLER_27_93
*1637 FILLER_27_97
*1638 FILLER_2_109
*1639 FILLER_2_121
*1640 FILLER_2_138
*1641 FILLER_2_141
*1642 FILLER_2_152
*1643 FILLER_2_156
*1644 FILLER_2_183
*1645 FILLER_2_194
*1646 FILLER_2_197
*1647 FILLER_2_20
*1648 FILLER_2_208
*1649 FILLER_2_215
*1650 FILLER_2_227
*1651 FILLER_2_235
*1652 FILLER_2_242
*1653 FILLER_2_246
*1654 FILLER_2_250
*1655 FILLER_2_253
*1656 FILLER_2_258
*1657 FILLER_2_265
*1658 FILLER_2_277
*1659 FILLER_2_29
*1660 FILLER_2_292
*1661 FILLER_2_3
*1662 FILLER_2_300
*1663 FILLER_2_304
*1664 FILLER_2_309
*1665 FILLER_2_318
*1666 FILLER_2_330
*1667 FILLER_2_342
*1668 FILLER_2_354
*1669 FILLER_2_362
*1670 FILLER_2_365
*1671 FILLER_2_377
*1672 FILLER_2_389
*1673 FILLER_2_401
*1674 FILLER_2_41
*1675 FILLER_2_413
*1676 FILLER_2_419
*1677 FILLER_2_421
*1678 FILLER_2_433
*1679 FILLER_2_445
*1680 FILLER_2_457
*1681 FILLER_2_465
*1682 FILLER_2_471
*1683 FILLER_2_53
*1684 FILLER_2_65
*1685 FILLER_2_77
*1686 FILLER_2_8
*1687 FILLER_2_83
*1688 FILLER_2_85
*1689 FILLER_2_97
*1690 FILLER_3_102
*1691 FILLER_3_110
*1692 FILLER_3_113
*1693 FILLER_3_125
*1694 FILLER_3_129
*1695 FILLER_3_149
*1696 FILLER_3_15
*1697 FILLER_3_161
*1698 FILLER_3_167
*1699 FILLER_3_169
*1700 FILLER_3_184
*1701 FILLER_3_190
*1702 FILLER_3_207
*1703 FILLER_3_218
*1704 FILLER_3_225
*1705 FILLER_3_237
*1706 FILLER_3_260
*1707 FILLER_3_269
*1708 FILLER_3_27
*1709 FILLER_3_278
*1710 FILLER_3_281
*1711 FILLER_3_3