*SPEF "ieee 1481-1999"
*DESIGN "scan_controller"
*DATE "11:11:11 Fri 11 11, 1111"
*VENDOR "OpenRCX"
*PROGRAM "Parallel Extraction"
*VERSION "1.0"
*DESIGN_FLOW "NAME_SCOPE LOCAL" "PIN_CAP NONE"
*DIVIDER /
*DELIMITER :
*BUS_DELIMITER []
*T_UNIT 1 NS
*C_UNIT 1 PF
*R_UNIT 1 OHM
*L_UNIT 1 HENRY

*NAME_MAP
*1 active_select[0]
*2 active_select[1]
*3 active_select[2]
*4 active_select[3]
*5 active_select[4]
*6 active_select[5]
*7 active_select[6]
*8 active_select[7]
*9 active_select[8]
*10 clk
*11 driver_sel[0]
*12 driver_sel[1]
*13 inputs[0]
*14 inputs[1]
*15 inputs[2]
*16 inputs[3]
*17 inputs[4]
*18 inputs[5]
*19 inputs[6]
*20 inputs[7]
*21 la_scan_clk_in
*22 la_scan_data_in
*23 la_scan_data_out
*24 la_scan_latch_en
*25 la_scan_select
*26 net43
*27 net53
*28 net54
*29 net55
*30 net56
*31 net57
*32 net58
*33 net59
*34 net60
*35 net61
*36 net62
*37 net44
*38 net63
*39 net64
*40 net65
*41 net66
*42 net67
*43 net68
*44 net69
*45 net70
*46 net71
*47 net72
*48 net45
*49 net73
*50 net74
*51 net75
*52 net76
*53 net77
*54 net78
*55 net79
*56 net80
*57 net46
*58 net47
*59 net48
*60 net49
*61 net50
*62 net51
*63 net52
*64 outputs[0]
*65 outputs[1]
*66 outputs[2]
*67 outputs[3]
*68 outputs[4]
*69 outputs[5]
*70 outputs[6]
*71 outputs[7]
*72 ready
*73 reset
*74 scan_clk_in
*75 scan_clk_out
*76 scan_data_in
*77 scan_data_out
*78 scan_latch_en
*79 scan_select
*80 set_clk_div
*81 slow_clk
*84 _000_
*85 _001_
*86 _002_
*87 _003_
*88 _004_
*89 _005_
*90 _006_
*91 _007_
*92 _008_
*93 _009_
*94 _010_
*95 _011_
*96 _012_
*97 _013_
*98 _014_
*99 _015_
*100 _016_
*101 _017_
*102 _018_
*103 _019_
*104 _020_
*105 _021_
*106 _022_
*107 _023_
*108 _024_
*109 _025_
*110 _026_
*111 _027_
*112 _028_
*113 _029_
*114 _030_
*115 _031_
*116 _032_
*117 _033_
*118 _034_
*119 _035_
*120 _036_
*121 _037_
*122 _039_
*123 _041_
*124 _043_
*125 _044_
*126 _045_
*127 _046_
*128 _047_
*129 _048_
*130 _049_
*131 _050_
*132 _051_
*133 _052_
*134 _053_
*135 _054_
*136 _055_
*137 _056_
*138 _057_
*139 _058_
*140 _059_
*141 _060_
*142 _061_
*143 _062_
*144 _063_
*145 _064_
*146 _065_
*147 _066_
*148 _067_
*149 _068_
*150 _069_
*151 _070_
*152 _071_
*153 _072_
*154 _073_
*155 _074_
*156 _075_
*157 _076_
*158 _077_
*159 _078_
*160 _079_
*161 _080_
*162 _081_
*163 _082_
*164 _083_
*165 _084_
*166 _085_
*167 _086_
*168 _087_
*169 _088_
*170 _089_
*171 _090_
*172 _091_
*173 _092_
*174 _093_
*175 _094_
*176 _095_
*177 _096_
*178 _097_
*179 _098_
*180 _099_
*181 _100_
*182 _101_
*183 _102_
*184 _103_
*185 _104_
*186 _105_
*187 _106_
*188 _107_
*189 _108_
*190 _109_
*191 _110_
*192 _111_
*193 _112_
*194 _113_
*195 _114_
*196 _115_
*197 _116_
*198 _117_
*199 _118_
*200 _119_
*201 _120_
*202 _121_
*203 _122_
*204 _123_
*205 _124_
*206 _125_
*207 _126_
*208 _127_
*209 _128_
*210 _129_
*211 _130_
*212 _131_
*213 _132_
*214 _133_
*215 _134_
*216 _135_
*217 _136_
*218 _137_
*219 _138_
*220 _139_
*221 _140_
*222 _141_
*223 _142_
*224 _143_
*225 _144_
*226 _145_
*227 _146_
*228 _147_
*229 _148_
*230 _149_
*231 _150_
*232 _151_
*233 _152_
*234 _153_
*235 _154_
*236 _155_
*237 _156_
*238 _157_
*239 _158_
*240 _159_
*241 _160_
*242 _161_
*243 _162_
*244 _163_
*245 _164_
*246 _165_
*247 _166_
*248 _167_
*249 _168_
*250 _169_
*251 _170_
*252 _171_
*253 _172_
*254 _173_
*255 _174_
*256 _175_
*257 _176_
*258 _177_
*259 _178_
*260 _179_
*261 _180_
*262 _181_
*263 _182_
*264 _183_
*265 _184_
*266 _185_
*267 _186_
*268 _187_
*269 _188_
*270 _189_
*271 _190_
*272 _191_
*273 _192_
*274 _193_
*275 _194_
*276 _195_
*277 _196_
*278 _197_
*279 _198_
*280 _199_
*281 _200_
*282 _201_
*283 _202_
*284 _203_
*285 _204_
*286 _205_
*287 _206_
*288 _207_
*289 _208_
*290 _209_
*291 _210_
*292 _211_
*293 _212_
*294 _213_
*295 _214_
*296 _215_
*297 _216_
*298 _217_
*299 _218_
*300 _219_
*301 _220_
*302 _221_
*303 _222_
*304 _223_
*305 _224_
*306 _225_
*307 _226_
*308 _227_
*309 _228_
*310 _229_
*311 _230_
*312 _231_
*313 _232_
*314 _233_
*315 _234_
*316 _235_
*317 _236_
*318 _237_
*319 _238_
*320 _239_
*321 _240_
*322 _241_
*323 _242_
*324 _243_
*325 _244_
*326 _245_
*327 _246_
*328 _247_
*329 _248_
*330 _249_
*331 _250_
*332 _251_
*333 _252_
*334 _253_
*335 _254_
*336 _255_
*337 _256_
*338 _257_
*339 _258_
*340 _259_
*341 _260_
*342 _261_
*343 _262_
*344 _263_
*345 _264_
*346 _265_
*347 _266_
*348 _267_
*349 _268_
*350 _269_
*351 _270_
*352 _271_
*353 _272_
*354 _273_
*355 _274_
*356 _275_
*357 _276_
*358 _277_
*359 _278_
*360 _279_
*361 _280_
*362 _281_
*363 _282_
*364 _283_
*365 _284_
*366 _285_
*367 _286_
*368 _287_
*369 _288_
*370 _289_
*371 _290_
*372 _291_
*373 _292_
*374 _293_
*375 _294_
*376 _295_
*377 _296_
*378 _297_
*379 _298_
*380 _299_
*381 _300_
*382 _301_
*383 _302_
*384 _303_
*385 _304_
*386 _305_
*387 _306_
*388 _307_
*389 _308_
*390 _309_
*391 _310_
*392 _311_
*393 _312_
*394 _313_
*395 _314_
*396 _315_
*397 _316_
*398 _317_
*399 _318_
*400 _319_
*401 _320_
*402 _321_
*403 _322_
*404 _323_
*405 _324_
*406 _325_
*407 _326_
*408 _327_
*409 _328_
*410 _329_
*411 _330_
*412 _331_
*413 _332_
*414 _333_
*415 _334_
*416 _335_
*417 _336_
*418 _337_
*419 _338_
*420 _339_
*421 _340_
*422 _341_
*423 _342_
*424 _343_
*425 active
*426 aio_input_reg\[0\]
*427 aio_input_reg\[1\]
*428 aio_input_reg\[2\]
*429 aio_input_reg\[3\]
*430 aio_input_reg\[4\]
*431 aio_input_reg\[5\]
*432 aio_input_reg\[6\]
*433 aio_input_reg\[7\]
*434 aio_input_sh
*435 aio_input_shift\[0\]
*436 aio_input_shift\[1\]
*437 aio_input_shift\[2\]
*438 aio_input_shift\[3\]
*439 aio_input_shift\[4\]
*440 aio_input_shift\[5\]
*441 aio_input_shift\[6\]
*442 aio_input_shift\[7\]
*443 aio_input_sync\[0\]
*444 aio_input_sync\[1\]
*445 aio_input_sync\[2\]
*446 aio_input_sync\[3\]
*447 aio_input_sync\[4\]
*448 aio_input_sync\[5\]
*449 aio_input_sync\[6\]
*450 aio_input_sync\[7\]
*451 aio_output_cap
*452 aio_output_reg\[0\]
*453 aio_output_reg\[1\]
*454 aio_output_reg\[2\]
*455 aio_output_reg\[3\]
*456 aio_output_reg\[4\]
*457 aio_output_reg\[5\]
*458 aio_output_reg\[6\]
*459 aio_output_reg\[7\]
*460 aio_output_shift\[0\]
*461 aio_output_shift\[1\]
*462 aio_output_shift\[2\]
*463 aio_output_shift\[3\]
*464 aio_output_shift\[4\]
*465 aio_output_shift\[5\]
*466 aio_output_shift\[6\]
*467 aio_output_shift\[7\]
*468 bit_cnt\[0\]
*469 bit_cnt\[1\]
*470 bit_cnt\[2\]
*471 bit_cnt\[3\]
*472 clk_divider_I\.active
*473 clk_divider_I\.ce
*474 clk_divider_I\.compare\[0\]
*475 clk_divider_I\.compare\[1\]
*476 clk_divider_I\.compare\[2\]
*477 clk_divider_I\.compare\[3\]
*478 clk_divider_I\.compare\[4\]
*479 clk_divider_I\.compare\[5\]
*480 clk_divider_I\.compare\[6\]
*481 clk_divider_I\.compare\[7\]
*482 clk_divider_I\.counter\[0\]
*483 clk_divider_I\.counter\[1\]
*484 clk_divider_I\.counter\[2\]
*485 clk_divider_I\.counter\[3\]
*486 clk_divider_I\.counter\[4\]
*487 clk_divider_I\.counter\[5\]
*488 clk_divider_I\.counter\[6\]
*489 clk_divider_I\.counter\[7\]
*490 clk_divider_I\.reset
*491 clk_divider_I\.set_now
*492 clk_divider_I\.set_sync\[0\]
*493 clk_divider_I\.set_sync\[1\]
*494 clknet_0_clk
*495 clknet_0_scan_clk_in
*496 clknet_1_0__leaf_scan_clk_in
*497 clknet_1_1__leaf_scan_clk_in
*498 clknet_3_0__leaf_clk
*499 clknet_3_1__leaf_clk
*500 clknet_3_2__leaf_clk
*501 clknet_3_3__leaf_clk
*502 clknet_3_4__leaf_clk
*503 clknet_3_5__leaf_clk
*504 clknet_3_6__leaf_clk
*505 clknet_3_7__leaf_clk
*506 int_scan_clk_out
*507 int_scan_data_out
*508 int_scan_latch_en
*509 int_scan_select
*510 net1
*511 net10
*512 net11
*513 net12
*514 net13
*515 net14
*516 net15
*517 net16
*518 net17
*519 net18
*520 net19
*521 net2
*522 net20
*523 net21
*524 net22
*525 net23
*526 net24
*527 net25
*528 net26
*529 net27
*530 net28
*531 net29
*532 net3
*533 net30
*534 net31
*535 net32
*536 net33
*537 net34
*538 net35
*539 net36
*540 net37
*541 net38
*542 net39
*543 net4
*544 net40
*545 net41
*546 net42
*547 net5
*548 net6
*549 net7
*550 net8
*551 net81
*552 net82
*553 net83
*554 net84
*555 net85
*556 net86
*557 net87
*558 net88
*559 net89
*560 net9
*561 net90
*562 net91
*563 proj_cnt\[0\]
*564 proj_cnt\[1\]
*565 proj_cnt\[2\]
*566 proj_cnt\[3\]
*567 proj_cnt\[4\]
*568 proj_cnt\[5\]
*569 proj_cnt\[6\]
*570 proj_cnt\[7\]
*571 proj_cnt\[8\]
*572 rst_shift\[0\]
*573 rst_shift\[1\]
*574 state\[0\]
*575 state\[12\]
*576 state\[13\]
*577 state\[1\]
*578 state\[2\]
*579 state\[3\]
*580 state\[4\]
*581 state\[5\]
*582 state\[6\]
*583 state\[8\]
*584 state\[9\]
*585 ws_cfg\[0\]
*586 ws_cfg\[1\]
*587 ws_cfg\[2\]
*588 ws_cfg\[3\]
*589 ws_cfg\[4\]
*590 ws_cfg\[5\]
*591 ws_cfg\[6\]
*592 ws_cfg\[7\]
*593 ws_cnt\[0\]
*594 ws_cnt\[1\]
*595 ws_cnt\[2\]
*596 ws_cnt\[3\]
*597 ws_cnt\[4\]
*598 ws_cnt\[5\]
*599 ws_cnt\[6\]
*600 ws_cnt\[7\]
*601 ws_set_now
*602 ws_set_sync\[0\]
*603 ws_set_sync\[1\]
*604 ws_set_sync\[2\]
*605 ANTENNA_1
*606 ANTENNA_2
*607 ANTENNA_3
*608 FILLER_0_110
*609 FILLER_0_113
*610 FILLER_0_118
*611 FILLER_0_126
*612 FILLER_0_138
*613 FILLER_0_141
*614 FILLER_0_15
*615 FILLER_0_153
*616 FILLER_0_159
*617 FILLER_0_167
*618 FILLER_0_169
*619 FILLER_0_174
*620 FILLER_0_188
*621 FILLER_0_197
*622 FILLER_0_202
*623 FILLER_0_210
*624 FILLER_0_216
*625 FILLER_0_225
*626 FILLER_0_233
*627 FILLER_0_238
*628 FILLER_0_250
*629 FILLER_0_253
*630 FILLER_0_258
*631 FILLER_0_266
*632 FILLER_0_27
*633 FILLER_0_272
*634 FILLER_0_281
*635 FILLER_0_287
*636 FILLER_0_29
*637 FILLER_0_299
*638 FILLER_0_3
*639 FILLER_0_307
*640 FILLER_0_309
*641 FILLER_0_314
*642 FILLER_0_321
*643 FILLER_0_333
*644 FILLER_0_337
*645 FILLER_0_34
*646 FILLER_0_349
*647 FILLER_0_361
*648 FILLER_0_365
*649 FILLER_0_373
*650 FILLER_0_378
*651 FILLER_0_390
*652 FILLER_0_393
*653 FILLER_0_398
*654 FILLER_0_406
*655 FILLER_0_41
*656 FILLER_0_412
*657 FILLER_0_421
*658 FILLER_0_426
*659 FILLER_0_438
*660 FILLER_0_446
*661 FILLER_0_449
*662 FILLER_0_455
*663 FILLER_0_459
*664 FILLER_0_463
*665 FILLER_0_471
*666 FILLER_0_53
*667 FILLER_0_57
*668 FILLER_0_63
*669 FILLER_0_71
*670 FILLER_0_76
*671 FILLER_0_8
*672 FILLER_0_85
*673 FILLER_0_93
*674 FILLER_0_98
*675 FILLER_10_103
*676 FILLER_10_115
*677 FILLER_10_124
*678 FILLER_10_130
*679 FILLER_10_136
*680 FILLER_10_141
*681 FILLER_10_145
*682 FILLER_10_149
*683 FILLER_10_156
*684 FILLER_10_163
*685 FILLER_10_170
*686 FILLER_10_194
*687 FILLER_10_197
*688 FILLER_10_201
*689 FILLER_10_211
*690 FILLER_10_218
*691 FILLER_10_238
*692 FILLER_10_245
*693 FILLER_10_251
*694 FILLER_10_253
*695 FILLER_10_26
*696 FILLER_10_262
*697 FILLER_10_269
*698 FILLER_10_281
*699 FILLER_10_29
*700 FILLER_10_293
*701 FILLER_10_299
*702 FILLER_10_3
*703 FILLER_10_305
*704 FILLER_10_309
*705 FILLER_10_314
*706 FILLER_10_332
*707 FILLER_10_343
*708 FILLER_10_355
*709 FILLER_10_363
*710 FILLER_10_365
*711 FILLER_10_376
*712 FILLER_10_388
*713 FILLER_10_400
*714 FILLER_10_409
*715 FILLER_10_413
*716 FILLER_10_418
*717 FILLER_10_421
*718 FILLER_10_443
*719 FILLER_10_467
*720 FILLER_10_47
*721 FILLER_10_59
*722 FILLER_10_71
*723 FILLER_10_80
*724 FILLER_10_85
*725 FILLER_10_9
*726 FILLER_11_110
*727 FILLER_11_113
*728 FILLER_11_125
*729 FILLER_11_137
*730 FILLER_11_141
*731 FILLER_11_145
*732 FILLER_11_157
*733 FILLER_11_166
*734 FILLER_11_169
*735 FILLER_11_191
*736 FILLER_11_198
*737 FILLER_11_209
*738 FILLER_11_216
*739 FILLER_11_225
*740 FILLER_11_232
*741 FILLER_11_238
*742 FILLER_11_259
*743 FILLER_11_265
*744 FILLER_11_27
*745 FILLER_11_275
*746 FILLER_11_279
*747 FILLER_11_281
*748 FILLER_11_289
*749 FILLER_11_3
*750 FILLER_11_306
*751 FILLER_11_326
*752 FILLER_11_333
*753 FILLER_11_337
*754 FILLER_11_349
*755 FILLER_11_360
*756 FILLER_11_380
*757 FILLER_11_393
*758 FILLER_11_404
*759 FILLER_11_416
*760 FILLER_11_431
*761 FILLER_11_443
*762 FILLER_11_447
*763 FILLER_11_449
*764 FILLER_11_461
*765 FILLER_11_47
*766 FILLER_11_55
*767 FILLER_11_57
*768 FILLER_11_66
*769 FILLER_11_78
*770 FILLER_11_98
*771 FILLER_12_110
*772 FILLER_12_117
*773 FILLER_12_129
*774 FILLER_12_13
*775 FILLER_12_137
*776 FILLER_12_141
*777 FILLER_12_152
*778 FILLER_12_167
*779 FILLER_12_194
*780 FILLER_12_197
*781 FILLER_12_208
*782 FILLER_12_220
*783 FILLER_12_230
*784 FILLER_12_250
*785 FILLER_12_253
*786 FILLER_12_26
*787 FILLER_12_277
*788 FILLER_12_283
*789 FILLER_12_29
*790 FILLER_12_293
*791 FILLER_12_3
*792 FILLER_12_301
*793 FILLER_12_306
*794 FILLER_12_309
*795 FILLER_12_321
*796 FILLER_12_342
*797 FILLER_12_349
*798 FILLER_12_357
*799 FILLER_12_362
*800 FILLER_12_365
*801 FILLER_12_384
*802 FILLER_12_39
*803 FILLER_12_392
*804 FILLER_12_411
*805 FILLER_12_419
*806 FILLER_12_421
*807 FILLER_12_433
*808 FILLER_12_445
*809 FILLER_12_457
*810 FILLER_12_465
*811 FILLER_12_47
*812 FILLER_12_471
*813 FILLER_12_69
*814 FILLER_12_82
*815 FILLER_12_85
*816 FILLER_12_9
*817 FILLER_12_90
*818 FILLER_13_109
*819 FILLER_13_113
*820 FILLER_13_118
*821 FILLER_13_126
*822 FILLER_13_13
*823 FILLER_13_144
*824 FILLER_13_166
*825 FILLER_13_169
*826 FILLER_13_175
*827 FILLER_13_182
*828 FILLER_13_20
*829 FILLER_13_207
*830 FILLER_13_219
*831 FILLER_13_223
*832 FILLER_13_225
*833 FILLER_13_256
*834 FILLER_13_265
*835 FILLER_13_276
*836 FILLER_13_281
*837 FILLER_13_293
*838 FILLER_13_3
*839 FILLER_13_317
*840 FILLER_13_327
*841 FILLER_13_334
*842 FILLER_13_337
*843 FILLER_13_342
*844 FILLER_13_369
*845 FILLER_13_382
*846 FILLER_13_386
*847 FILLER_13_390
*848 FILLER_13_393
*849 FILLER_13_399
*850 FILLER_13_40
*851 FILLER_13_411
*852 FILLER_13_423
*853 FILLER_13_435
*854 FILLER_13_447
*855 FILLER_13_449
*856 FILLER_13_461
*857 FILLER_13_53
*858 FILLER_13_57
*859 FILLER_13_65
*860 FILLER_13_82
*861 FILLER_13_9
*862 FILLER_13_90
*863 FILLER_14_100
*864 FILLER_14_121
*865 FILLER_14_138
*866 FILLER_14_141
*867 FILLER_14_145
*868 FILLER_14_151
*869 FILLER_14_157
*870 FILLER_14_178
*871 FILLER_14_193
*872 FILLER_14_197
*873 FILLER_14_202
*874 FILLER_14_214
*875 FILLER_14_238
*876 FILLER_14_247
*877 FILLER_14_251
*878 FILLER_14_253
*879 FILLER_14_258
*880 FILLER_14_26
*881 FILLER_14_266
*882 FILLER_14_283
*883 FILLER_14_29
*884 FILLER_14_295
*885 FILLER_14_3
*886 FILLER_14_307
*887 FILLER_14_309
*888 FILLER_14_327
*889 FILLER_14_338
*890 FILLER_14_347
*891 FILLER_14_359
*892 FILLER_14_363
*893 FILLER_14_365
*894 FILLER_14_377
*895 FILLER_14_385
*896 FILLER_14_404
*897 FILLER_14_411
*898 FILLER_14_419
*899 FILLER_14_421
*900 FILLER_14_433
*901 FILLER_14_445
*902 FILLER_14_456
*903 FILLER_14_468
*904 FILLER_14_472
*905 FILLER_14_53
*906 FILLER_14_75
*907 FILLER_14_82
*908 FILLER_14_85
*909 FILLER_14_9
*910 FILLER_14_96
*911 FILLER_15_109
*912 FILLER_15_113
*913 FILLER_15_131
*914 FILLER_15_144
*915 FILLER_15_148
*916 FILLER_15_15
*917 FILLER_15_152
*918 FILLER_15_159
*919 FILLER_15_166
*920 FILLER_15_169
*921 FILLER_15_181
*922 FILLER_15_189
*923 FILLER_15_194
*924 FILLER_15_202
*925 FILLER_15_209
*926 FILLER_15_216
*927 FILLER_15_225
*928 FILLER_15_231
*929 FILLER_15_235
*930 FILLER_15_259
*931 FILLER_15_263
*932 FILLER_15_267
*933 FILLER_15_27
*934 FILLER_15_274
*935 FILLER_15_281
*936 FILLER_15_289
*937 FILLER_15_297
*938 FILLER_15_3
*939 FILLER_15_319
*940 FILLER_15_329
*941 FILLER_15_335
*942 FILLER_15_337
*943 FILLER_15_342
*944 FILLER_15_354
*945 FILLER_15_375
*946 FILLER_15_386
*947 FILLER_15_393
*948 FILLER_15_411
*949 FILLER_15_421
*950 FILLER_15_433
*951 FILLER_15_445
*952 FILLER_15_449
*953 FILLER_15_458
*954 FILLER_15_47
*955 FILLER_15_470
*956 FILLER_15_55
*957 FILLER_15_57
*958 FILLER_15_79
*959 FILLER_15_96
*960 FILLER_16_112
*961 FILLER_16_120
*962 FILLER_16_138
*963 FILLER_16_141
*964 FILLER_16_148
*965 FILLER_16_15
*966 FILLER_16_156
*967 FILLER_16_175
*968 FILLER_16_187
*969 FILLER_16_195
*970 FILLER_16_197
*971 FILLER_16_219
*972 FILLER_16_231
*973 FILLER_16_235
*974 FILLER_16_247
*975 FILLER_16_251
*976 FILLER_16_253
*977 FILLER_16_26
*978 FILLER_16_260
*979 FILLER_16_267
*980 FILLER_16_274
*981 FILLER_16_286
*982 FILLER_16_29
*983 FILLER_16_298
*984 FILLER_16_3
*985 FILLER_16_306
*986 FILLER_16_309
*987 FILLER_16_338
*988 FILLER_16_346
*989 FILLER_16_358
*990 FILLER_16_365
*991 FILLER_16_373
*992 FILLER_16_381
*993 FILLER_16_389
*994 FILLER_16_397
*995 FILLER_16_410
*996 FILLER_16_418
*997 FILLER_16_421
*998 FILLER_16_433
*999 FILLER_16_437
*1000 FILLER_16_454
*1001 FILLER_16_466
*1002 FILLER_16_471
*1003 FILLER_16_49
*1004 FILLER_16_56
*1005 FILLER_16_60
*1006 FILLER_16_70
*1007 FILLER_16_82
*1008 FILLER_16_85
*1009 FILLER_16_93
*1010 FILLER_17_101
*1011 FILLER_17_109
*1012 FILLER_17_113
*1013 FILLER_17_125
*1014 FILLER_17_147
*1015 FILLER_17_15
*1016 FILLER_17_154
*1017 FILLER_17_166
*1018 FILLER_17_169
*1019 FILLER_17_180
*1020 FILLER_17_192
*1021 FILLER_17_198
*1022 FILLER_17_211
*1023 FILLER_17_222
*1024 FILLER_17_225
*1025 FILLER_17_232
*1026 FILLER_17_239
*1027 FILLER_17_251
*1028 FILLER_17_257
*1029 FILLER_17_26
*1030 FILLER_17_278
*1031 FILLER_17_281
*1032 FILLER_17_293
*1033 FILLER_17_3
*1034 FILLER_17_30
*1035 FILLER_17_303
*1036 FILLER_17_313
*1037 FILLER_17_333
*1038 FILLER_17_337
*1039 FILLER_17_34
*1040 FILLER_17_344
*1041 FILLER_17_353
*1042 FILLER_17_373
*1043 FILLER_17_380
*1044 FILLER_17_390
*1045 FILLER_17_393
*1046 FILLER_17_403
*1047 FILLER_17_416
*1048 FILLER_17_428
*1049 FILLER_17_434
*1050 FILLER_17_444
*1051 FILLER_17_449
*1052 FILLER_17_461
*1053 FILLER_17_54
*1054 FILLER_17_57
*1055 FILLER_17_63
*1056 FILLER_17_73
*1057 FILLER_17_86
*1058 FILLER_18_101
*1059 FILLER_18_121
*1060 FILLER_18_138
*1061 FILLER_18_141
*1062 FILLER_18_15
*1063 FILLER_18_156
*1064 FILLER_18_168
*1065 FILLER_18_180
*1066 FILLER_18_188
*1067 FILLER_18_19
*1068 FILLER_18_194
*1069 FILLER_18_197
*1070 FILLER_18_219
*1071 FILLER_18_23
*1072 FILLER_18_231
*1073 FILLER_18_242
*1074 FILLER_18_250
*1075 FILLER_18_253
*1076 FILLER_18_27
*1077 FILLER_18_275
*1078 FILLER_18_282
*1079 FILLER_18_29
*1080 FILLER_18_294
*1081 FILLER_18_3
*1082 FILLER_18_306
*1083 FILLER_18_309
*1084 FILLER_18_321
*1085 FILLER_18_329
*1086 FILLER_18_33
*1087 FILLER_18_340
*1088 FILLER_18_349
*1089 FILLER_18_357
*1090 FILLER_18_362
*1091 FILLER_18_365
*1092 FILLER_18_376
*1093 FILLER_18_385
*1094 FILLER_18_397
*1095 FILLER_18_406
*1096 FILLER_18_417
*1097 FILLER_18_421
*1098 FILLER_18_43
*1099 FILLER_18_433
*1100 FILLER_18_439
*1101 FILLER_18_448
*1102 FILLER_18_460
*1103 FILLER_18_472
*1104 FILLER_18_63
*1105 FILLER_18_67
*1106 FILLER_18_77
*1107 FILLER_18_83
*1108 FILLER_18_85
*1109 FILLER_18_97
*1110 FILLER_19_110
*1111 FILLER_19_113
*1112 FILLER_19_124
*1113 FILLER_19_130
*1114 FILLER_19_147
*1115 FILLER_19_15
*1116 FILLER_19_154
*1117 FILLER_19_166
*1118 FILLER_19_169
*1119 FILLER_19_181
*1120 FILLER_19_185
*1121 FILLER_19_19
*1122 FILLER_19_209
*1123 FILLER_19_221
*1124 FILLER_19_225
*1125 FILLER_19_23
*1126 FILLER_19_232
*1127 FILLER_19_244
*1128 FILLER_19_256
*1129 FILLER_19_261
*1130 FILLER_19_274
*1131 FILLER_19_281
*1132 FILLER_19_287
*1133 FILLER_19_299
*1134 FILLER_19_3
*1135 FILLER_19_31
*1136 FILLER_19_321
*1137 FILLER_19_334
*1138 FILLER_19_337
*1139 FILLER_19_347
*1140 FILLER_19_356
*1141 FILLER_19_360
*1142 FILLER_19_365
*1143 FILLER_19_376
*1144 FILLER_19_389
*1145 FILLER_19_393
*1146 FILLER_19_401
*1147 FILLER_19_411
*1148 FILLER_19_418
*1149 FILLER_19_422
*1150 FILLER_19_428
*1151 FILLER_19_444
*1152 FILLER_19_449
*1153 FILLER_19_461
*1154 FILLER_19_467
*1155 FILLER_19_471
*1156 FILLER_19_48
*1157 FILLER_19_57
*1158 FILLER_19_75
*1159 FILLER_19_82
*1160 FILLER_1_106
*1161 FILLER_1_113
*1162 FILLER_1_125
*1163 FILLER_1_137
*1164 FILLER_1_141
*1165 FILLER_1_166
*1166 FILLER_1_169
*1167 FILLER_1_174
*1168 FILLER_1_181
*1169 FILLER_1_20
*1170 FILLER_1_210
*1171 FILLER_1_222
*1172 FILLER_1_225
*1173 FILLER_1_229
*1174 FILLER_1_233
*1175 FILLER_1_245
*1176 FILLER_1_257
*1177 FILLER_1_269
*1178 FILLER_1_277
*1179 FILLER_1_281
*1180 FILLER_1_293
*1181 FILLER_1_3
*1182 FILLER_1_305
*1183 FILLER_1_317
*1184 FILLER_1_32
*1185 FILLER_1_329
*1186 FILLER_1_335
*1187 FILLER_1_337
*1188 FILLER_1_349
*1189 FILLER_1_355
*1190 FILLER_1_358
*1191 FILLER_1_363
*1192 FILLER_1_375
*1193 FILLER_1_387
*1194 FILLER_1_391
*1195 FILLER_1_393
*1196 FILLER_1_405
*1197 FILLER_1_417
*1198 FILLER_1_429
*1199 FILLER_1_44
*1200 FILLER_1_441
*1201 FILLER_1_447
*1202 FILLER_1_449
*1203 FILLER_1_461
*1204 FILLER_1_467
*1205 FILLER_1_471
*1206 FILLER_1_57
*1207 FILLER_1_69
*1208 FILLER_1_73
*1209 FILLER_1_8
*1210 FILLER_1_85
*1211 FILLER_1_94
*1212 FILLER_20_108
*1213 FILLER_20_128
*1214 FILLER_20_141
*1215 FILLER_20_148
*1216 FILLER_20_15
*1217 FILLER_20_160
*1218 FILLER_20_172
*1219 FILLER_20_194
*1220 FILLER_20_197
*1221 FILLER_20_207
*1222 FILLER_20_217
*1223 FILLER_20_224
*1224 FILLER_20_228
*1225 FILLER_20_234
*1226 FILLER_20_242
*1227 FILLER_20_247
*1228 FILLER_20_251
*1229 FILLER_20_253
*1230 FILLER_20_27
*1231 FILLER_20_275
*1232 FILLER_20_282
*1233 FILLER_20_29
*1234 FILLER_20_294
*1235 FILLER_20_3
*1236 FILLER_20_303
*1237 FILLER_20_307
*1238 FILLER_20_309
*1239 FILLER_20_315
*1240 FILLER_20_330
*1241 FILLER_20_335
*1242 FILLER_20_345
*1243 FILLER_20_35
*1244 FILLER_20_352
*1245 FILLER_20_365
*1246 FILLER_20_376
*1247 FILLER_20_385
*1248 FILLER_20_39
*1249 FILLER_20_405
*1250 FILLER_20_417
*1251 FILLER_20_421
*1252 FILLER_20_429
*1253 FILLER_20_449
*1254 FILLER_20_459
*1255 FILLER_20_471
*1256 FILLER_20_59
*1257 FILLER_20_72
*1258 FILLER_20_85
*1259 FILLER_20_97
*1260 FILLER_21_104
*1261 FILLER_21_113
*1262 FILLER_21_121
*1263 FILLER_21_126
*1264 FILLER_21_146
*1265 FILLER_21_158
*1266 FILLER_21_166
*1267 FILLER_21_169
*1268 FILLER_21_178
*1269 FILLER_21_20
*1270 FILLER_21_202
*1271 FILLER_21_212
*1272 FILLER_21_221
*1273 FILLER_21_225
*1274 FILLER_21_229
*1275 FILLER_21_233
*1276 FILLER_21_253
*1277 FILLER_21_266
*1278 FILLER_21_270
*1279 FILLER_21_276
*1280 FILLER_21_281
*1281 FILLER_21_292
*1282 FILLER_21_3
*1283 FILLER_21_312
*1284 FILLER_21_32
*1285 FILLER_21_324
*1286 FILLER_21_334
*1287 FILLER_21_337
*1288 FILLER_21_361
*1289 FILLER_21_365
*1290 FILLER_21_369
*1291 FILLER_21_376
*1292 FILLER_21_390
*1293 FILLER_21_393
*1294 FILLER_21_399
*1295 FILLER_21_406
*1296 FILLER_21_418
*1297 FILLER_21_446
*1298 FILLER_21_449
*1299 FILLER_21_461
*1300 FILLER_21_49
*1301 FILLER_21_55
*1302 FILLER_21_57
*1303 FILLER_21_68
*1304 FILLER_21_8
*1305 FILLER_21_80
*1306 FILLER_21_92
*1307 FILLER_22_111
*1308 FILLER_22_123
*1309 FILLER_22_135
*1310 FILLER_22_139
*1311 FILLER_22_141
*1312 FILLER_22_15
*1313 FILLER_22_153
*1314 FILLER_22_165
*1315 FILLER_22_177
*1316 FILLER_22_183
*1317 FILLER_22_187
*1318 FILLER_22_194
*1319 FILLER_22_197
*1320 FILLER_22_202
*1321 FILLER_22_208
*1322 FILLER_22_225
*1323 FILLER_22_238
*1324 FILLER_22_250
*1325 FILLER_22_253
*1326 FILLER_22_265
*1327 FILLER_22_27
*1328 FILLER_22_271
*1329 FILLER_22_288
*1330 FILLER_22_29
*1331 FILLER_22_3
*1332 FILLER_22_300
*1333 FILLER_22_309
*1334 FILLER_22_321
*1335 FILLER_22_327
*1336 FILLER_22_344
*1337 FILLER_22_356
*1338 FILLER_22_365
*1339 FILLER_22_370
*1340 FILLER_22_378
*1341 FILLER_22_384
*1342 FILLER_22_404
*1343 FILLER_22_41
*1344 FILLER_22_416
*1345 FILLER_22_421
*1346 FILLER_22_440
*1347 FILLER_22_447
*1348 FILLER_22_456
*1349 FILLER_22_464
*1350 FILLER_22_471
*1351 FILLER_22_53
*1352 FILLER_22_65
*1353 FILLER_22_77
*1354 FILLER_22_83
*1355 FILLER_22_85
*1356 FILLER_22_93
*1357 FILLER_23_105
*1358 FILLER_23_111
*1359 FILLER_23_113
*1360 FILLER_23_125
*1361 FILLER_23_137
*1362 FILLER_23_149
*1363 FILLER_23_15
*1364 FILLER_23_161
*1365 FILLER_23_167
*1366 FILLER_23_169
*1367 FILLER_23_181
*1368 FILLER_23_205
*1369 FILLER_23_217
*1370 FILLER_23_223
*1371 FILLER_23_225
*1372 FILLER_23_233
*1373 FILLER_23_245
*1374 FILLER_23_257
*1375 FILLER_23_27
*1376 FILLER_23_278
*1377 FILLER_23_281
*1378 FILLER_23_293
*1379 FILLER_23_3
*1380 FILLER_23_305
*1381 FILLER_23_317
*1382 FILLER_23_329
*1383 FILLER_23_334
*1384 FILLER_23_337
*1385 FILLER_23_347
*1386 FILLER_23_357
*1387 FILLER_23_366
*1388 FILLER_23_378
*1389 FILLER_23_382
*1390 FILLER_23_386
*1391 FILLER_23_39
*1392 FILLER_23_393
*1393 FILLER_23_398
*1394 FILLER_23_410
*1395 FILLER_23_422
*1396 FILLER_23_434
*1397 FILLER_23_446
*1398 FILLER_23_449
*1399 FILLER_23_461
*1400 FILLER_23_51
*1401 FILLER_23_55
*1402 FILLER_23_57
*1403 FILLER_23_69
*1404 FILLER_23_81
*1405 FILLER_23_93
*1406 FILLER_24_109
*1407 FILLER_24_121
*1408 FILLER_24_133
*1409 FILLER_24_139
*1410 FILLER_24_141
*1411 FILLER_24_153
*1412 FILLER_24_165
*1413 FILLER_24_177
*1414 FILLER_24_189
*1415 FILLER_24_195
*1416 FILLER_24_197
*1417 FILLER_24_209
*1418 FILLER_24_21
*1419 FILLER_24_221
*1420 FILLER_24_233
*1421 FILLER_24_245
*1422 FILLER_24_251
*1423 FILLER_24_253
*1424 FILLER_24_265
*1425 FILLER_24_27
*1426 FILLER_24_277
*1427 FILLER_24_289
*1428 FILLER_24_29
*1429 FILLER_24_3
*1430 FILLER_24_301
*1431 FILLER_24_307
*1432 FILLER_24_309
*1433 FILLER_24_321
*1434 FILLER_24_333
*1435 FILLER_24_342
*1436 FILLER_24_354
*1437 FILLER_24_362
*1438 FILLER_24_365
*1439 FILLER_24_377
*1440 FILLER_24_389
*1441 FILLER_24_401
*1442 FILLER_24_41
*1443 FILLER_24_413
*1444 FILLER_24_419
*1445 FILLER_24_421
*1446 FILLER_24_433
*1447 FILLER_24_445
*1448 FILLER_24_457
*1449 FILLER_24_469
*1450 FILLER_24_53
*1451 FILLER_24_65
*1452 FILLER_24_77
*1453 FILLER_24_83
*1454 FILLER_24_85
*1455 FILLER_24_9
*1456 FILLER_24_97
*1457 FILLER_25_105
*1458 FILLER_25_111
*1459 FILLER_25_113
*1460 FILLER_25_125
*1461 FILLER_25_137
*1462 FILLER_25_149
*1463 FILLER_25_161
*1464 FILLER_25_167
*1465 FILLER_25_169
*1466 FILLER_25_181
*1467 FILLER_25_193
*1468 FILLER_25_20
*1469 FILLER_25_205
*1470 FILLER_25_217
*1471 FILLER_25_223
*1472 FILLER_25_225
*1473 FILLER_25_237
*1474 FILLER_25_249
*1475 FILLER_25_261
*1476 FILLER_25_273
*1477 FILLER_25_279
*1478 FILLER_25_281
*1479 FILLER_25_293
*1480 FILLER_25_3
*1481 FILLER_25_305
*1482 FILLER_25_317
*1483 FILLER_25_32
*1484 FILLER_25_329
*1485 FILLER_25_335
*1486 FILLER_25_337
*1487 FILLER_25_349
*1488 FILLER_25_361
*1489 FILLER_25_373
*1490 FILLER_25_385
*1491 FILLER_25_391
*1492 FILLER_25_393
*1493 FILLER_25_405
*1494 FILLER_25_417
*1495 FILLER_25_429
*1496 FILLER_25_44
*1497 FILLER_25_441
*1498 FILLER_25_447
*1499 FILLER_25_449
*1500 FILLER_25_456
*1501 FILLER_25_460
*1502 FILLER_25_471
*1503 FILLER_25_57
*1504 FILLER_25_69
*1505 FILLER_25_8
*1506 FILLER_25_81
*1507 FILLER_25_93
*1508 FILLER_26_109
*1509 FILLER_26_121
*1510 FILLER_26_133
*1511 FILLER_26_139
*1512 FILLER_26_141
*1513 FILLER_26_147
*1514 FILLER_26_159
*1515 FILLER_26_171
*1516 FILLER_26_183
*1517 FILLER_26_195
*1518 FILLER_26_197
*1519 FILLER_26_209
*1520 FILLER_26_21
*1521 FILLER_26_221
*1522 FILLER_26_233
*1523 FILLER_26_245
*1524 FILLER_26_251
*1525 FILLER_26_253
*1526 FILLER_26_265
*1527 FILLER_26_27
*1528 FILLER_26_277
*1529 FILLER_26_289
*1530 FILLER_26_29
*1531 FILLER_26_295
*1532 FILLER_26_299
*1533 FILLER_26_3
*1534 FILLER_26_307
*1535 FILLER_26_309
*1536 FILLER_26_321
*1537 FILLER_26_333
*1538 FILLER_26_345
*1539 FILLER_26_357
*1540 FILLER_26_363
*1541 FILLER_26_365
*1542 FILLER_26_377
*1543 FILLER_26_389
*1544 FILLER_26_401
*1545 FILLER_26_41
*1546 FILLER_26_413
*1547 FILLER_26_419
*1548 FILLER_26_421
*1549 FILLER_26_433
*1550 FILLER_26_445
*1551 FILLER_26_457
*1552 FILLER_26_464
*1553 FILLER_26_471
*1554 FILLER_26_53
*1555 FILLER_26_65
*1556 FILLER_26_77
*1557 FILLER_26_83
*1558 FILLER_26_85
*1559 FILLER_26_9
*1560 FILLER_26_97
*1561 FILLER_27_109
*1562 FILLER_27_113
*1563 FILLER_27_119
*1564 FILLER_27_127
*1565 FILLER_27_132
*1566 FILLER_27_141
*1567 FILLER_27_146
*1568 FILLER_27_158
*1569 FILLER_27_166
*1570 FILLER_27_169
*1571 FILLER_27_17
*1572 FILLER_27_177
*1573 FILLER_27_182
*1574 FILLER_27_194
*1575 FILLER_27_197
*1576 FILLER_27_202
*1577 FILLER_27_21
*1578 FILLER_27_210
*1579 FILLER_27_217
*1580 FILLER_27_223
*1581 FILLER_27_225
*1582 FILLER_27_233
*1583 FILLER_27_237
*1584 FILLER_27_249
*1585 FILLER_27_253
*1586 FILLER_27_258
*1587 FILLER_27_26
*1588 FILLER_27_266
*1589 FILLER_27_272
*1590 FILLER_27_281
*1591 FILLER_27_289
*1592 FILLER_27_29
*1593 FILLER_27_293
*1594 FILLER_27_3
*1595 FILLER_27_305
*1596 FILLER_27_309
*1597 FILLER_27_314
*1598 FILLER_27_322
*1599 FILLER_27_328
*1600 FILLER_27_337
*1601 FILLER_27_343
*1602 FILLER_27_355
*1603 FILLER_27_363
*1604 FILLER_27_365
*1605 FILLER_27_37
*1606 FILLER_27_370
*1607 FILLER_27_377
*1608 FILLER_27_389
*1609 FILLER_27_393
*1610 FILLER_27_398
*1611 FILLER_27_406
*1612 FILLER_27_413
*1613 FILLER_27_419
*1614 FILLER_27_42
*1615 FILLER_27_421
*1616 FILLER_27_429
*1617 FILLER_27_434
*1618 FILLER_27_446
*1619 FILLER_27_449
*1620 FILLER_27_454
*1621 FILLER_27_463
*1622 FILLER_27_471
*1623 FILLER_27_54
*1624 FILLER_27_57
*1625 FILLER_27_62
*1626 FILLER_27_70
*1627 FILLER_27_76
*1628 FILLER_27_85
*1629 FILLER_27_9
*1630 FILLER_27_93
*1631 FILLER_27_97
*1632 FILLER_2_109
*1633 FILLER_2_121
*1634 FILLER_2_133
*1635 FILLER_2_139
*1636 FILLER_2_141
*1637 FILLER_2_145
*1638 FILLER_2_149
*1639 FILLER_2_155
*1640 FILLER_2_159
*1641 FILLER_2_167
*1642 FILLER_2_190
*1643 FILLER_2_197
*1644 FILLER_2_20
*1645 FILLER_2_202
*1646 FILLER_2_214
*1647 FILLER_2_226
*1648 FILLER_2_233
*1649 FILLER_2_245
*1650 FILLER_2_251
*1651 FILLER_2_253
*1652 FILLER_2_265
*1653 FILLER_2_277
*1654 FILLER_2_289
*1655 FILLER_2_29
*1656 FILLER_2_3
*1657 FILLER_2_301
*1658 FILLER_2_307
*1659 FILLER_2_309
*1660 FILLER_2_321
*1661 FILLER_2_325
*1662 FILLER_2_346
*1663 FILLER_2_358
*1664 FILLER_2_365
*1665 FILLER_2_377
*1666 FILLER_2_389
*1667 FILLER_2_398
*1668 FILLER_2_41
*1669 FILLER_2_410
*1670 FILLER_2_418
*1671 FILLER_2_421
*1672 FILLER_2_433
*1673 FILLER_2_445
*1674 FILLER_2_457
*1675 FILLER_2_465
*1676 FILLER_2_471
*1677 FILLER_2_49
*1678 FILLER_2_53
*1679 FILLER_2_65
*1680 FILLER_2_77
*1681 FILLER_2_8
*1682 FILLER_2_83
*1683 FILLER_2_85
*1684 FILLER_2_97
*1685 FILLER_3_105
*1686 FILLER_3_111
*1687 FILLER_3_113
*1688 FILLER_3_125
*1689 FILLER_3_132
*1690 FILLER_3_144
*1691 FILLER_3_15
*1692 FILLER_3_166
*1693 FILLER_3_169
*1694 FILLER_3_174
*1695 FILLER_3_181
*1696 FILLER_3_205
*1697 FILLER_3_217
*1698 FILLER_3_223
*1699 FILLER_3_225
*1700 FILLER_3_230
*1701 FILLER_3_234
*1702 FILLER_3_238
*1703 FILLER_3_250
*1704 FILLER_3_262
*1705 FILLER_3_27
*1706 FILLER_3_274
*1707 FILLER_3_281
*1708 FILLER_3_285
*1709 FILLER_3_295
*1710 FILLER_3_3
*1711 FILLER_3_307
*1712 FILLER_3_319
*1713 FILLER_3_334