*SPEF "ieee 1481-1999"
*DESIGN "secretFile"
*DATE "11:11:11 Fri 11 11, 1111"
*VENDOR "OpenRCX"
*PROGRAM "Parallel Extraction"
*VERSION "1.0"
*DESIGN_FLOW "NAME_SCOPE LOCAL" "PIN_CAP NONE"
*DIVIDER /
*DELIMITER :
*BUS_DELIMITER []
*T_UNIT 1 NS
*C_UNIT 1 PF
*R_UNIT 1 OHM
*L_UNIT 1 HENRY

*NAME_MAP
*1 io_in[0]
*2 io_in[1]
*3 io_in[2]
*4 io_in[3]
*5 io_in[4]
*6 io_in[5]
*7 io_in[6]
*8 io_in[7]
*9 io_out[0]
*10 io_out[1]
*11 io_out[2]
*12 io_out[3]
*13 io_out[4]
*14 io_out[5]
*15 io_out[6]
*16 io_out[7]
*19 _0000_
*20 _0001_
*21 _0002_
*22 _0003_
*23 _0004_
*24 _0005_
*25 _0006_
*26 _0007_
*27 _0008_
*28 _0009_
*29 _0010_
*30 _0011_
*31 _0012_
*32 _0013_
*33 _0014_
*34 _0015_
*35 _0016_
*36 _0017_
*37 _0018_
*38 _0019_
*39 _0020_
*40 _0021_
*41 _0022_
*42 _0023_
*43 _0024_
*44 _0025_
*45 _0026_
*46 _0027_
*47 _0028_
*48 _0029_
*49 _0030_
*50 _0031_
*51 _0032_
*52 _0033_
*53 _0034_
*54 _0035_
*55 _0036_
*56 _0037_
*57 _0038_
*58 _0039_
*59 _0040_
*60 _0041_
*61 _0042_
*62 _0043_
*63 _0044_
*64 _0045_
*65 _0046_
*66 _0047_
*67 _0048_
*68 _0049_
*69 _0050_
*70 _0051_
*71 _0052_
*72 _0053_
*73 _0054_
*74 _0055_
*75 _0056_
*76 _0057_
*77 _0058_
*78 _0059_
*79 _0060_
*80 _0061_
*81 _0062_
*82 _0063_
*83 _0064_
*84 _0065_
*85 _0066_
*86 _0067_
*87 _0068_
*88 _0069_
*89 _0070_
*90 _0071_
*91 _0072_
*92 _0073_
*93 _0074_
*94 _0075_
*95 _0076_
*96 _0077_
*97 _0078_
*98 _0079_
*99 _0080_
*100 _0081_
*101 _0082_
*102 _0083_
*103 _0084_
*104 _0085_
*105 _0086_
*106 _0087_
*107 _0088_
*108 _0089_
*109 _0090_
*110 _0091_
*111 _0092_
*112 _0093_
*113 _0094_
*114 _0095_
*115 _0096_
*116 _0097_
*117 _0098_
*118 _0099_
*119 _0100_
*120 _0101_
*121 _0102_
*122 _0103_
*123 _0104_
*124 _0105_
*125 _0106_
*126 _0107_
*127 _0108_
*128 _0109_
*129 _0110_
*130 _0111_
*131 _0112_
*132 _0113_
*133 _0114_
*134 _0115_
*135 _0116_
*136 _0117_
*137 _0118_
*138 _0119_
*139 _0120_
*140 _0121_
*141 _0122_
*142 _0123_
*143 _0124_
*144 _0125_
*145 _0126_
*146 _0127_
*147 _0128_
*148 _0129_
*149 _0130_
*150 _0131_
*151 _0132_
*152 _0133_
*153 _0134_
*154 _0135_
*155 _0136_
*156 _0137_
*157 _0138_
*158 _0139_
*159 _0140_
*160 _0141_
*161 _0142_
*162 _0143_
*163 _0144_
*164 _0145_
*165 _0146_
*166 _0147_
*167 _0148_
*168 _0149_
*169 _0150_
*170 _0151_
*171 _0152_
*172 _0153_
*173 _0154_
*174 _0155_
*175 _0156_
*176 _0157_
*177 _0158_
*178 _0159_
*179 _0160_
*180 _0161_
*181 _0162_
*182 _0163_
*183 _0164_
*184 _0165_
*185 _0166_
*186 _0167_
*187 _0168_
*188 _0169_
*189 _0170_
*190 _0171_
*191 _0172_
*192 _0173_
*193 _0174_
*194 _0175_
*195 _0176_
*196 _0177_
*197 _0178_
*198 _0179_
*199 _0180_
*200 _0181_
*201 _0182_
*202 _0183_
*203 _0184_
*204 _0185_
*205 _0186_
*206 _0187_
*207 _0188_
*208 _0189_
*209 _0190_
*210 _0191_
*211 _0192_
*212 _0193_
*213 _0194_
*214 _0195_
*215 _0196_
*216 _0197_
*217 _0198_
*218 _0199_
*219 _0200_
*220 _0201_
*221 _0202_
*222 _0203_
*223 _0204_
*224 _0205_
*225 _0206_
*226 _0207_
*227 _0208_
*228 _0209_
*229 _0210_
*230 _0211_
*231 _0212_
*232 _0213_
*233 _0214_
*234 _0215_
*235 _0216_
*236 _0217_
*237 _0218_
*238 _0219_
*239 _0220_
*240 _0221_
*241 _0222_
*242 _0223_
*243 _0224_
*244 _0225_
*245 _0226_
*246 _0227_
*247 _0228_
*248 _0229_
*249 _0230_
*250 _0231_
*251 _0232_
*252 _0233_
*253 _0234_
*254 _0235_
*255 _0236_
*256 _0237_
*257 _0238_
*258 _0239_
*259 _0240_
*260 _0241_
*261 _0242_
*262 _0243_
*263 _0244_
*264 _0245_
*265 _0246_
*266 _0247_
*267 _0248_
*268 _0249_
*269 _0250_
*270 _0251_
*271 _0252_
*272 _0253_
*273 _0254_
*274 _0255_
*275 _0256_
*276 _0257_
*277 _0258_
*278 _0259_
*279 _0260_
*280 _0261_
*281 _0262_
*282 _0263_
*283 _0264_
*284 _0265_
*285 _0266_
*286 _0267_
*287 _0268_
*288 _0269_
*289 _0270_
*290 _0271_
*291 _0272_
*292 _0273_
*293 _0274_
*294 _0275_
*295 _0276_
*296 _0277_
*297 _0278_
*298 _0279_
*299 _0280_
*300 _0281_
*301 _0282_
*302 _0283_
*303 _0284_
*304 _0285_
*305 _0286_
*306 _0287_
*307 _0288_
*308 _0289_
*309 _0290_
*310 _0291_
*311 _0292_
*312 _0293_
*313 _0294_
*314 _0295_
*315 _0296_
*316 _0297_
*317 _0298_
*318 _0299_
*319 _0300_
*320 _0301_
*321 _0302_
*322 _0303_
*323 _0304_
*324 _0305_
*325 _0306_
*326 _0307_
*327 _0308_
*328 _0309_
*329 _0310_
*330 _0311_
*331 _0312_
*332 _0313_
*333 _0314_
*334 _0315_
*335 _0316_
*336 _0317_
*337 _0318_
*338 _0319_
*339 _0320_
*340 _0321_
*341 _0322_
*342 _0323_
*343 _0324_
*344 _0325_
*345 _0326_
*346 _0327_
*347 _0328_
*348 _0329_
*349 _0330_
*350 _0331_
*351 _0332_
*352 _0333_
*353 _0334_
*354 _0335_
*355 _0336_
*356 _0337_
*357 _0338_
*358 _0339_
*359 _0340_
*360 _0341_
*361 _0342_
*362 _0343_
*363 _0344_
*364 _0345_
*365 _0346_
*366 _0347_
*367 _0348_
*368 _0349_
*369 _0350_
*370 _0351_
*371 _0352_
*372 _0353_
*373 _0354_
*374 _0355_
*375 _0356_
*376 _0357_
*377 _0358_
*378 _0359_
*379 _0360_
*380 _0361_
*381 _0362_
*382 _0363_
*383 _0364_
*384 _0365_
*385 _0366_
*386 _0367_
*387 _0368_
*388 _0369_
*389 _0370_
*390 _0371_
*391 _0372_
*392 _0373_
*393 _0374_
*394 _0375_
*395 _0376_
*396 _0377_
*397 _0378_
*398 _0379_
*399 _0380_
*400 _0381_
*401 _0382_
*402 _0383_
*403 _0384_
*404 _0385_
*405 _0386_
*406 _0387_
*407 _0388_
*408 _0389_
*409 _0390_
*410 _0391_
*411 _0392_
*412 _0393_
*413 _0394_
*414 _0395_
*415 _0396_
*416 _0397_
*417 _0398_
*418 _0399_
*419 _0400_
*420 _0401_
*421 _0402_
*422 _0403_
*423 _0404_
*424 _0405_
*425 _0406_
*426 _0407_
*427 _0408_
*428 _0409_
*429 _0410_
*430 _0411_
*431 _0412_
*432 _0413_
*433 _0414_
*434 _0415_
*435 _0416_
*436 _0417_
*437 _0418_
*438 _0419_
*439 _0420_
*440 _0421_
*441 _0422_
*442 _0423_
*443 _0424_
*444 _0425_
*445 _0426_
*446 _0427_
*447 _0428_
*448 _0429_
*449 _0430_
*450 _0431_
*451 _0432_
*452 _0433_
*453 _0434_
*454 _0435_
*455 _0436_
*456 _0437_
*457 _0438_
*458 _0439_
*459 _0440_
*460 _0441_
*461 _0442_
*462 _0443_
*463 _0444_
*464 _0445_
*465 _0446_
*466 _0447_
*467 _0448_
*468 _0449_
*469 _0450_
*470 _0451_
*471 _0452_
*472 _0453_
*473 _0454_
*474 _0455_
*475 _0456_
*476 _0457_
*477 _0458_
*478 _0459_
*479 _0460_
*480 _0461_
*481 _0462_
*482 _0463_
*483 _0464_
*484 _0465_
*485 _0466_
*486 _0467_
*487 _0468_
*488 _0469_
*489 _0470_
*490 _0471_
*491 _0472_
*492 _0473_
*493 _0474_
*494 _0475_
*495 _0476_
*496 _0477_
*497 _0478_
*498 _0479_
*499 _0480_
*500 _0481_
*501 _0482_
*502 _0483_
*503 _0484_
*504 _0485_
*505 _0486_
*506 _0487_
*507 _0488_
*508 _0489_
*509 _0490_
*510 _0491_
*511 _0492_
*512 _0493_
*513 _0494_
*514 _0495_
*515 _0496_
*516 _0497_
*517 _0498_
*518 _0499_
*519 _0500_
*520 _0501_
*521 _0502_
*522 _0503_
*523 _0504_
*524 _0505_
*525 _0506_
*526 _0507_
*527 _0508_
*528 _0509_
*529 _0510_
*530 _0511_
*531 _0512_
*532 _0513_
*533 _0514_
*534 _0515_
*535 _0516_
*536 _0517_
*537 _0518_
*538 _0519_
*539 _0520_
*540 _0521_
*541 _0522_
*542 _0523_
*543 _0524_
*544 _0525_
*545 _0526_
*546 _0527_
*547 _0528_
*548 _0529_
*549 _0530_
*550 _0531_
*551 _0532_
*552 _0533_
*553 _0534_
*554 _0535_
*555 _0536_
*556 _0537_
*557 _0538_
*558 _0539_
*559 _0540_
*560 _0541_
*561 _0542_
*562 _0543_
*563 _0544_
*564 _0545_
*565 _0546_
*566 _0547_
*567 _0548_
*568 _0549_
*569 _0550_
*570 _0551_
*571 _0552_
*572 _0553_
*573 _0554_
*574 _0555_
*575 _0556_
*576 _0557_
*577 _0558_
*578 _0559_
*579 _0560_
*580 _0561_
*581 _0562_
*582 _0563_
*583 _0564_
*584 _0565_
*585 _0566_
*586 _0567_
*587 _0568_
*588 _0569_
*589 _0570_
*590 _0571_
*591 _0572_
*592 _0573_
*593 _0574_
*594 _0575_
*595 _0576_
*596 _0577_
*597 _0578_
*598 _0579_
*599 _0580_
*600 _0581_
*601 _0582_
*602 _0583_
*603 _0584_
*604 _0585_
*605 _0586_
*606 _0587_
*607 _0588_
*608 _0589_
*609 _0590_
*610 _0591_
*611 _0592_
*612 _0593_
*613 _0594_
*614 _0595_
*615 _0596_
*616 _0597_
*617 _0598_
*618 _0599_
*619 _0600_
*620 _0601_
*621 _0602_
*622 _0603_
*623 _0604_
*624 _0605_
*625 _0606_
*626 _0607_
*627 _0608_
*628 _0609_
*629 _0610_
*630 _0611_
*631 _0612_
*632 _0613_
*633 _0614_
*634 _0615_
*635 _0616_
*636 _0617_
*637 _0618_
*638 _0619_
*639 _0620_
*640 _0621_
*641 _0622_
*642 _0623_
*643 _0624_
*644 _0625_
*645 _0626_
*646 _0627_
*647 _0628_
*648 _0629_
*649 _0630_
*650 _0631_
*651 _0632_
*652 _0633_
*653 _0634_
*654 _0635_
*655 _0636_
*656 _0637_
*657 _0638_
*658 _0639_
*659 _0640_
*660 _0641_
*661 _0642_
*662 _0643_
*663 _0644_
*664 _0645_
*665 _0646_
*666 _0647_
*667 _0648_
*668 _0649_
*669 _0650_
*670 _0651_
*671 _0652_
*672 _0653_
*673 _0654_
*674 _0655_
*675 _0656_
*676 clknet_0_io_in[0]
*677 clknet_1_0__leaf_io_in[0]
*678 clknet_1_1__leaf_io_in[0]
*679 index\[0\]
*680 index\[1\]
*681 index\[2\]
*682 index\[3\]
*683 index\[4\]
*684 index\[5\]
*685 index\[6\]
*686 index\[7\]
*687 index\[8\]
*688 ANTENNA_1
*689 ANTENNA_2
*690 ANTENNA_3
*691 FILLER_0_109
*692 FILLER_0_113
*693 FILLER_0_125
*694 FILLER_0_137
*695 FILLER_0_141
*696 FILLER_0_15
*697 FILLER_0_153
*698 FILLER_0_165
*699 FILLER_0_169
*700 FILLER_0_181
*701 FILLER_0_193
*702 FILLER_0_197
*703 FILLER_0_209
*704 FILLER_0_221
*705 FILLER_0_225
*706 FILLER_0_237
*707 FILLER_0_249
*708 FILLER_0_253
*709 FILLER_0_265
*710 FILLER_0_27
*711 FILLER_0_277
*712 FILLER_0_281
*713 FILLER_0_29
*714 FILLER_0_293
*715 FILLER_0_3
*716 FILLER_0_41
*717 FILLER_0_53
*718 FILLER_0_57
*719 FILLER_0_69
*720 FILLER_0_81
*721 FILLER_0_85
*722 FILLER_0_97
*723 FILLER_10_106
*724 FILLER_10_117
*725 FILLER_10_130
*726 FILLER_10_138
*727 FILLER_10_141
*728 FILLER_10_148
*729 FILLER_10_15
*730 FILLER_10_158
*731 FILLER_10_175
*732 FILLER_10_192
*733 FILLER_10_197
*734 FILLER_10_203
*735 FILLER_10_207
*736 FILLER_10_213
*737 FILLER_10_225
*738 FILLER_10_237
*739 FILLER_10_249
*740 FILLER_10_253
*741 FILLER_10_265
*742 FILLER_10_27
*743 FILLER_10_277
*744 FILLER_10_289
*745 FILLER_10_29
*746 FILLER_10_297
*747 FILLER_10_3
*748 FILLER_10_41
*749 FILLER_10_52
*750 FILLER_10_60
*751 FILLER_10_66
*752 FILLER_10_78
*753 FILLER_10_85
*754 FILLER_10_94
*755 FILLER_11_101
*756 FILLER_11_109
*757 FILLER_11_113
*758 FILLER_11_123
*759 FILLER_11_132
*760 FILLER_11_140
*761 FILLER_11_146
*762 FILLER_11_15
*763 FILLER_11_155
*764 FILLER_11_166
*765 FILLER_11_169
*766 FILLER_11_181
*767 FILLER_11_185
*768 FILLER_11_193
*769 FILLER_11_208
*770 FILLER_11_218
*771 FILLER_11_225
*772 FILLER_11_237
*773 FILLER_11_249
*774 FILLER_11_261
*775 FILLER_11_27
*776 FILLER_11_273
*777 FILLER_11_279
*778 FILLER_11_281
*779 FILLER_11_293
*780 FILLER_11_3
*781 FILLER_11_35
*782 FILLER_11_43
*783 FILLER_11_47
*784 FILLER_11_54
*785 FILLER_11_57
*786 FILLER_11_68
*787 FILLER_11_76
*788 FILLER_11_84
*789 FILLER_11_88
*790 FILLER_11_94
*791 FILLER_12_104
*792 FILLER_12_108
*793 FILLER_12_117
*794 FILLER_12_127
*795 FILLER_12_131
*796 FILLER_12_138
*797 FILLER_12_141
*798 FILLER_12_15
*799 FILLER_12_161
*800 FILLER_12_174
*801 FILLER_12_184
*802 FILLER_12_194
*803 FILLER_12_197
*804 FILLER_12_206
*805 FILLER_12_212
*806 FILLER_12_220
*807 FILLER_12_230
*808 FILLER_12_242
*809 FILLER_12_250
*810 FILLER_12_253
*811 FILLER_12_265
*812 FILLER_12_27
*813 FILLER_12_277
*814 FILLER_12_289
*815 FILLER_12_29
*816 FILLER_12_297
*817 FILLER_12_3
*818 FILLER_12_39
*819 FILLER_12_51
*820 FILLER_12_63
*821 FILLER_12_69
*822 FILLER_12_77
*823 FILLER_12_83
*824 FILLER_12_85
*825 FILLER_12_94
*826 FILLER_13_100
*827 FILLER_13_110
*828 FILLER_13_113
*829 FILLER_13_121
*830 FILLER_13_133
*831 FILLER_13_141
*832 FILLER_13_146
*833 FILLER_13_15
*834 FILLER_13_156
*835 FILLER_13_166
*836 FILLER_13_169
*837 FILLER_13_177
*838 FILLER_13_187
*839 FILLER_13_197
*840 FILLER_13_207
*841 FILLER_13_217
*842 FILLER_13_223
*843 FILLER_13_225
*844 FILLER_13_232
*845 FILLER_13_244
*846 FILLER_13_256
*847 FILLER_13_268
*848 FILLER_13_27
*849 FILLER_13_281
*850 FILLER_13_293
*851 FILLER_13_3
*852 FILLER_13_34
*853 FILLER_13_46
*854 FILLER_13_54
*855 FILLER_13_57
*856 FILLER_13_69
*857 FILLER_13_76
*858 FILLER_13_88
*859 FILLER_14_102
*860 FILLER_14_115
*861 FILLER_14_128
*862 FILLER_14_138
*863 FILLER_14_141
*864 FILLER_14_149
*865 FILLER_14_15
*866 FILLER_14_164
*867 FILLER_14_178
*868 FILLER_14_188
*869 FILLER_14_197
*870 FILLER_14_206
*871 FILLER_14_216
*872 FILLER_14_228
*873 FILLER_14_240
*874 FILLER_14_253
*875 FILLER_14_265
*876 FILLER_14_27
*877 FILLER_14_277
*878 FILLER_14_289
*879 FILLER_14_29
*880 FILLER_14_297
*881 FILLER_14_3
*882 FILLER_14_37
*883 FILLER_14_47
*884 FILLER_14_53
*885 FILLER_14_61
*886 FILLER_14_72
*887 FILLER_14_81
*888 FILLER_14_85
*889 FILLER_14_94
*890 FILLER_15_102
*891 FILLER_15_109
*892 FILLER_15_113
*893 FILLER_15_127
*894 FILLER_15_136
*895 FILLER_15_146
*896 FILLER_15_15
*897 FILLER_15_161
*898 FILLER_15_167
*899 FILLER_15_169
*900 FILLER_15_178
*901 FILLER_15_189
*902 FILLER_15_200
*903 FILLER_15_212
*904 FILLER_15_222
*905 FILLER_15_225
*906 FILLER_15_237
*907 FILLER_15_249
*908 FILLER_15_26
*909 FILLER_15_261
*910 FILLER_15_273
*911 FILLER_15_279
*912 FILLER_15_281
*913 FILLER_15_293
*914 FILLER_15_3
*915 FILLER_15_30
*916 FILLER_15_34
*917 FILLER_15_46
*918 FILLER_15_54
*919 FILLER_15_57
*920 FILLER_15_66
*921 FILLER_15_79
*922 FILLER_15_91
*923 FILLER_16_109
*924 FILLER_16_119
*925 FILLER_16_134
*926 FILLER_16_141
*927 FILLER_16_15
*928 FILLER_16_152
*929 FILLER_16_159
*930 FILLER_16_185
*931 FILLER_16_194
*932 FILLER_16_197
*933 FILLER_16_206
*934 FILLER_16_218
*935 FILLER_16_230
*936 FILLER_16_242
*937 FILLER_16_250
*938 FILLER_16_253
*939 FILLER_16_26
*940 FILLER_16_265
*941 FILLER_16_277
*942 FILLER_16_289
*943 FILLER_16_29
*944 FILLER_16_297
*945 FILLER_16_3
*946 FILLER_16_35
*947 FILLER_16_42
*948 FILLER_16_54
*949 FILLER_16_64
*950 FILLER_16_76
*951 FILLER_16_85
*952 FILLER_16_97
*953 FILLER_17_100
*954 FILLER_17_104
*955 FILLER_17_110
*956 FILLER_17_113
*957 FILLER_17_138
*958 FILLER_17_146
*959 FILLER_17_15
*960 FILLER_17_154
*961 FILLER_17_166
*962 FILLER_17_169
*963 FILLER_17_173
*964 FILLER_17_180
*965 FILLER_17_190
*966 FILLER_17_198
*967 FILLER_17_209
*968 FILLER_17_219
*969 FILLER_17_223
*970 FILLER_17_225
*971 FILLER_17_23
*972 FILLER_17_233
*973 FILLER_17_245
*974 FILLER_17_257
*975 FILLER_17_269
*976 FILLER_17_277
*977 FILLER_17_281
*978 FILLER_17_293
*979 FILLER_17_3
*980 FILLER_17_35
*981 FILLER_17_47
*982 FILLER_17_55
*983 FILLER_17_57
*984 FILLER_17_63
*985 FILLER_17_71
*986 FILLER_17_82
*987 FILLER_17_93
*988 FILLER_18_106
*989 FILLER_18_114
*990 FILLER_18_120
*991 FILLER_18_128
*992 FILLER_18_138
*993 FILLER_18_141
*994 FILLER_18_15
*995 FILLER_18_153
*996 FILLER_18_164
*997 FILLER_18_172
*998 FILLER_18_181
*999 FILLER_18_192
*1000 FILLER_18_197
*1001 FILLER_18_208
*1002 FILLER_18_215
*1003 FILLER_18_219
*1004 FILLER_18_229
*1005 FILLER_18_241
*1006 FILLER_18_249
*1007 FILLER_18_253
*1008 FILLER_18_265
*1009 FILLER_18_27
*1010 FILLER_18_277
*1011 FILLER_18_289
*1012 FILLER_18_29
*1013 FILLER_18_297
*1014 FILLER_18_3
*1015 FILLER_18_37
*1016 FILLER_18_50
*1017 FILLER_18_57
*1018 FILLER_18_69
*1019 FILLER_18_73
*1020 FILLER_18_80
*1021 FILLER_18_85
*1022 FILLER_18_97
*1023 FILLER_19_103
*1024 FILLER_19_111
*1025 FILLER_19_113
*1026 FILLER_19_125
*1027 FILLER_19_134
*1028 FILLER_19_146
*1029 FILLER_19_152
*1030 FILLER_19_158
*1031 FILLER_19_162
*1032 FILLER_19_166
*1033 FILLER_19_169
*1034 FILLER_19_180
*1035 FILLER_19_193
*1036 FILLER_19_203
*1037 FILLER_19_211
*1038 FILLER_19_22
*1039 FILLER_19_221
*1040 FILLER_19_225
*1041 FILLER_19_237
*1042 FILLER_19_249
*1043 FILLER_19_261
*1044 FILLER_19_273
*1045 FILLER_19_279
*1046 FILLER_19_281
*1047 FILLER_19_293
*1048 FILLER_19_3
*1049 FILLER_19_32
*1050 FILLER_19_40
*1051 FILLER_19_49
*1052 FILLER_19_55
*1053 FILLER_19_57
*1054 FILLER_19_63
*1055 FILLER_19_81
*1056 FILLER_19_91
*1057 FILLER_1_105
*1058 FILLER_1_111
*1059 FILLER_1_113
*1060 FILLER_1_125
*1061 FILLER_1_137
*1062 FILLER_1_149
*1063 FILLER_1_15
*1064 FILLER_1_161
*1065 FILLER_1_167
*1066 FILLER_1_169
*1067 FILLER_1_181
*1068 FILLER_1_193
*1069 FILLER_1_205
*1070 FILLER_1_217
*1071 FILLER_1_223
*1072 FILLER_1_225
*1073 FILLER_1_237
*1074 FILLER_1_249
*1075 FILLER_1_261
*1076 FILLER_1_27
*1077 FILLER_1_273
*1078 FILLER_1_279
*1079 FILLER_1_281
*1080 FILLER_1_293
*1081 FILLER_1_3
*1082 FILLER_1_39
*1083 FILLER_1_51
*1084 FILLER_1_55
*1085 FILLER_1_57
*1086 FILLER_1_69
*1087 FILLER_1_81
*1088 FILLER_1_93
*1089 FILLER_20_103
*1090 FILLER_20_115
*1091 FILLER_20_12
*1092 FILLER_20_122
*1093 FILLER_20_130
*1094 FILLER_20_138
*1095 FILLER_20_141
*1096 FILLER_20_149
*1097 FILLER_20_155
*1098 FILLER_20_175
*1099 FILLER_20_192
*1100 FILLER_20_197
*1101 FILLER_20_201
*1102 FILLER_20_211
*1103 FILLER_20_22
*1104 FILLER_20_221
*1105 FILLER_20_231
*1106 FILLER_20_243
*1107 FILLER_20_251
*1108 FILLER_20_253
*1109 FILLER_20_265
*1110 FILLER_20_277
*1111 FILLER_20_289
*1112 FILLER_20_29
*1113 FILLER_20_297
*1114 FILLER_20_3
*1115 FILLER_20_39
*1116 FILLER_20_47
*1117 FILLER_20_56
*1118 FILLER_20_68
*1119 FILLER_20_72
*1120 FILLER_20_76
*1121 FILLER_20_85
*1122 FILLER_20_94
*1123 FILLER_21_100
*1124 FILLER_21_113
*1125 FILLER_21_12
*1126 FILLER_21_122
*1127 FILLER_21_126
*1128 FILLER_21_135
*1129 FILLER_21_148
*1130 FILLER_21_166
*1131 FILLER_21_169
*1132 FILLER_21_179
*1133 FILLER_21_187
*1134 FILLER_21_196
*1135 FILLER_21_206
*1136 FILLER_21_214
*1137 FILLER_21_221
*1138 FILLER_21_225
*1139 FILLER_21_241
*1140 FILLER_21_253
*1141 FILLER_21_265
*1142 FILLER_21_277
*1143 FILLER_21_281
*1144 FILLER_21_293
*1145 FILLER_21_3
*1146 FILLER_21_36
*1147 FILLER_21_44
*1148 FILLER_21_51
*1149 FILLER_21_55
*1150 FILLER_21_57
*1151 FILLER_21_65
*1152 FILLER_21_77
*1153 FILLER_21_82
*1154 FILLER_21_90
*1155 FILLER_22_108
*1156 FILLER_22_120
*1157 FILLER_22_130
*1158 FILLER_22_138
*1159 FILLER_22_141
*1160 FILLER_22_150
*1161 FILLER_22_161
*1162 FILLER_22_179
*1163 FILLER_22_189
*1164 FILLER_22_195
*1165 FILLER_22_197
*1166 FILLER_22_204
*1167 FILLER_22_212
*1168 FILLER_22_221
*1169 FILLER_22_233
*1170 FILLER_22_24
*1171 FILLER_22_245
*1172 FILLER_22_251
*1173 FILLER_22_253
*1174 FILLER_22_265
*1175 FILLER_22_277
*1176 FILLER_22_289
*1177 FILLER_22_29
*1178 FILLER_22_297
*1179 FILLER_22_3
*1180 FILLER_22_36
*1181 FILLER_22_40
*1182 FILLER_22_45
*1183 FILLER_22_57
*1184 FILLER_22_69
*1185 FILLER_22_80
*1186 FILLER_22_85
*1187 FILLER_22_97
*1188 FILLER_23_100
*1189 FILLER_23_104
*1190 FILLER_23_113
*1191 FILLER_23_12
*1192 FILLER_23_121
*1193 FILLER_23_126
*1194 FILLER_23_142
*1195 FILLER_23_146
*1196 FILLER_23_151
*1197 FILLER_23_163
*1198 FILLER_23_167
*1199 FILLER_23_169
*1200 FILLER_23_178
*1201 FILLER_23_182
*1202 FILLER_23_192
*1203 FILLER_23_201
*1204 FILLER_23_213
*1205 FILLER_23_221
*1206 FILLER_23_225
*1207 FILLER_23_237
*1208 FILLER_23_24
*1209 FILLER_23_249
*1210 FILLER_23_261
*1211 FILLER_23_273
*1212 FILLER_23_279
*1213 FILLER_23_281
*1214 FILLER_23_293
*1215 FILLER_23_3
*1216 FILLER_23_32
*1217 FILLER_23_41
*1218 FILLER_23_47
*1219 FILLER_23_51
*1220 FILLER_23_55
*1221 FILLER_23_57
*1222 FILLER_23_67
*1223 FILLER_23_71
*1224 FILLER_23_75
*1225 FILLER_23_87
*1226 FILLER_23_94
*1227 FILLER_24_105
*1228 FILLER_24_111
*1229 FILLER_24_117
*1230 FILLER_24_125
*1231 FILLER_24_137
*1232 FILLER_24_141
*1233 FILLER_24_146
*1234 FILLER_24_154
*1235 FILLER_24_161
*1236 FILLER_24_173
*1237 FILLER_24_180
*1238 FILLER_24_190
*1239 FILLER_24_197
*1240 FILLER_24_203
*1241 FILLER_24_21
*1242 FILLER_24_212
*1243 FILLER_24_224
*1244 FILLER_24_236
*1245 FILLER_24_248
*1246 FILLER_24_253
*1247 FILLER_24_265
*1248 FILLER_24_27
*1249 FILLER_24_277
*1250 FILLER_24_289
*1251 FILLER_24_29
*1252 FILLER_24_297
*1253 FILLER_24_3
*1254 FILLER_24_39
*1255 FILLER_24_47
*1256 FILLER_24_56
*1257 FILLER_24_60
*1258 FILLER_24_70
*1259 FILLER_24_81
*1260 FILLER_24_85
*1261 FILLER_24_97
*1262 FILLER_25_11
*1263 FILLER_25_110
*1264 FILLER_25_113
*1265 FILLER_25_121
*1266 FILLER_25_130
*1267 FILLER_25_139
*1268 FILLER_25_147
*1269 FILLER_25_159
*1270 FILLER_25_166
*1271 FILLER_25_169
*1272 FILLER_25_17
*1273 FILLER_25_184
*1274 FILLER_25_196
*1275 FILLER_25_203
*1276 FILLER_25_21
*1277 FILLER_25_215
*1278 FILLER_25_223
*1279 FILLER_25_225
*1280 FILLER_25_234
*1281 FILLER_25_246
*1282 FILLER_25_258
*1283 FILLER_25_270
*1284 FILLER_25_278
*1285 FILLER_25_281
*1286 FILLER_25_293
*1287 FILLER_25_3
*1288 FILLER_25_48
*1289 FILLER_25_57
*1290 FILLER_25_65
*1291 FILLER_25_75
*1292 FILLER_25_87
*1293 FILLER_25_97
*1294 FILLER_26_105
*1295 FILLER_26_111
*1296 FILLER_26_118
*1297 FILLER_26_130
*1298 FILLER_26_138
*1299 FILLER_26_141
*1300 FILLER_26_149
*1301 FILLER_26_153
*1302 FILLER_26_161
*1303 FILLER_26_167
*1304 FILLER_26_174
*1305 FILLER_26_182
*1306 FILLER_26_190
*1307 FILLER_26_197
*1308 FILLER_26_201
*1309 FILLER_26_206
*1310 FILLER_26_21
*1311 FILLER_26_218
*1312 FILLER_26_230
*1313 FILLER_26_242
*1314 FILLER_26_250
*1315 FILLER_26_253
*1316 FILLER_26_265
*1317 FILLER_26_27
*1318 FILLER_26_277
*1319 FILLER_26_289
*1320 FILLER_26_29
*1321 FILLER_26_297
*1322 FILLER_26_3
*1323 FILLER_26_38
*1324 FILLER_26_50
*1325 FILLER_26_66
*1326 FILLER_26_73
*1327 FILLER_26_81
*1328 FILLER_26_85
*1329 FILLER_26_93
*1330 FILLER_27_101
*1331 FILLER_27_109
*1332 FILLER_27_113
*1333 FILLER_27_118
*1334 FILLER_27_131
*1335 FILLER_27_139
*1336 FILLER_27_144
*1337 FILLER_27_153
*1338 FILLER_27_165
*1339 FILLER_27_169
*1340 FILLER_27_17
*1341 FILLER_27_177
*1342 FILLER_27_186
*1343 FILLER_27_194
*1344 FILLER_27_21
*1345 FILLER_27_215
*1346 FILLER_27_223
*1347 FILLER_27_225
*1348 FILLER_27_237
*1349 FILLER_27_249
*1350 FILLER_27_261
*1351 FILLER_27_273
*1352 FILLER_27_279
*1353 FILLER_27_281
*1354 FILLER_27_293
*1355 FILLER_27_3
*1356 FILLER_27_30
*1357 FILLER_27_46
*1358 FILLER_27_54
*1359 FILLER_27_57
*1360 FILLER_27_65
*1361 FILLER_27_69
*1362 FILLER_27_75
*1363 FILLER_27_87
*1364 FILLER_27_9
*1365 FILLER_27_93
*1366 FILLER_28_100
*1367 FILLER_28_112
*1368 FILLER_28_12
*1369 FILLER_28_125
*1370 FILLER_28_137
*1371 FILLER_28_141
*1372 FILLER_28_147
*1373 FILLER_28_151
*1374 FILLER_28_159
*1375 FILLER_28_165
*1376 FILLER_28_173
*1377 FILLER_28_181
*1378 FILLER_28_191
*1379 FILLER_28_195
*1380 FILLER_28_197
*1381 FILLER_28_209
*1382 FILLER_28_221
*1383 FILLER_28_238
*1384 FILLER_28_25
*1385 FILLER_28_250
*1386 FILLER_28_253
*1387 FILLER_28_265
*1388 FILLER_28_277
*1389 FILLER_28_289
*1390 FILLER_28_29
*1391 FILLER_28_297
*1392 FILLER_28_3
*1393 FILLER_28_38
*1394 FILLER_28_49
*1395 FILLER_28_59
*1396 FILLER_28_69
*1397 FILLER_28_76
*1398 FILLER_28_85
*1399 FILLER_28_90
*1400 FILLER_29_102
*1401 FILLER_29_11
*1402 FILLER_29_110
*1403 FILLER_29_113
*1404 FILLER_29_123
*1405 FILLER_29_131
*1406 FILLER_29_139
*1407 FILLER_29_151
*1408 FILLER_29_162
*1409 FILLER_29_169
*1410 FILLER_29_179
*1411 FILLER_29_187
*1412 FILLER_29_192
*1413 FILLER_29_200
*1414 FILLER_29_219
*1415 FILLER_29_223
*1416 FILLER_29_225
*1417 FILLER_29_23
*1418 FILLER_29_237
*1419 FILLER_29_249
*1420 FILLER_29_261
*1421 FILLER_29_273
*1422 FILLER_29_279
*1423 FILLER_29_281
*1424 FILLER_29_293
*1425 FILLER_29_3
*1426 FILLER_29_30
*1427 FILLER_29_54
*1428 FILLER_29_57
*1429 FILLER_29_61
*1430 FILLER_29_69
*1431 FILLER_29_7
*1432 FILLER_29_76
*1433 FILLER_29_88
*1434 FILLER_29_98
*1435 FILLER_2_109
*1436 FILLER_2_121
*1437 FILLER_2_133
*1438 FILLER_2_139
*1439 FILLER_2_141
*1440 FILLER_2_15
*1441 FILLER_2_153
*1442 FILLER_2_165
*1443 FILLER_2_177
*1444 FILLER_2_189
*1445 FILLER_2_195
*1446 FILLER_2_197
*1447 FILLER_2_209
*1448 FILLER_2_221
*1449 FILLER_2_233
*1450 FILLER_2_245
*1451 FILLER_2_251
*1452 FILLER_2_253
*1453 FILLER_2_265
*1454 FILLER_2_27
*1455 FILLER_2_277
*1456 FILLER_2_289
*1457 FILLER_2_29
*1458 FILLER_2_297
*1459 FILLER_2_3
*1460 FILLER_2_41
*1461 FILLER_2_53
*1462 FILLER_2_65
*1463 FILLER_2_77
*1464 FILLER_2_83
*1465 FILLER_2_85
*1466 FILLER_2_97
*1467 FILLER_30_103
*1468 FILLER_30_114
*1469 FILLER_30_120
*1470 FILLER_30_129
*1471 FILLER_30_138
*1472 FILLER_30_141
*1473 FILLER_30_148
*1474 FILLER_30_160
*1475 FILLER_30_164
*1476 FILLER_30_168
*1477 FILLER_30_176
*1478 FILLER_30_186
*1479 FILLER_30_194
*1480 FILLER_30_197
*1481 FILLER_30_206
*1482 FILLER_30_214
*1483 FILLER_30_22
*1484 FILLER_30_226
*1485 FILLER_30_238
*1486 FILLER_30_250
*1487 FILLER_30_253
*1488 FILLER_30_265
*1489 FILLER_30_277
*1490 FILLER_30_289
*1491 FILLER_30_29
*1492 FILLER_30_297
*1493 FILLER_30_3
*1494 FILLER_30_37
*1495 FILLER_30_45
*1496 FILLER_30_53
*1497 FILLER_30_70
*1498 FILLER_30_74
*1499 FILLER_30_82
*1500 FILLER_30_85
*1501 FILLER_30_93
*1502 FILLER_31_101
*1503 FILLER_31_109
*1504 FILLER_31_113
*1505 FILLER_31_12
*1506 FILLER_31_121
*1507 FILLER_31_131
*1508 FILLER_31_143
*1509 FILLER_31_155
*1510 FILLER_31_166
*1511 FILLER_31_169
*1512 FILLER_31_177
*1513 FILLER_31_181
*1514 FILLER_31_193
*1515 FILLER_31_205
*1516 FILLER_31_217
*1517 FILLER_31_223
*1518 FILLER_31_225
*1519 FILLER_31_237
*1520 FILLER_31_249
*1521 FILLER_31_261
*1522 FILLER_31_273
*1523 FILLER_31_279
*1524 FILLER_31_281
*1525 FILLER_31_293
*1526 FILLER_31_3
*1527 FILLER_31_36
*1528 FILLER_31_45
*1529 FILLER_31_53
*1530 FILLER_31_57
*1531 FILLER_31_61
*1532 FILLER_31_65
*1533 FILLER_31_77
*1534 FILLER_31_89
*1535 FILLER_32_108
*1536 FILLER_32_120
*1537 FILLER_32_132
*1538 FILLER_32_141
*1539 FILLER_32_152
*1540 FILLER_32_16
*1541 FILLER_32_163
*1542 FILLER_32_175
*1543 FILLER_32_181
*1544 FILLER_32_189
*1545 FILLER_32_195
*1546 FILLER_32_197
*1547 FILLER_32_208
*1548 FILLER_32_216
*1549 FILLER_32_230
*1550 FILLER_32_242
*1551 FILLER_32_250
*1552 FILLER_32_253
*1553 FILLER_32_26
*1554 FILLER_32_265
*1555 FILLER_32_277
*1556 FILLER_32_289
*1557 FILLER_32_29
*1558 FILLER_32_297
*1559 FILLER_32_3
*1560 FILLER_32_37
*1561 FILLER_32_45
*1562 FILLER_32_52
*1563 FILLER_32_65
*1564 FILLER_32_72
*1565 FILLER_32_85
*1566 FILLER_32_97
*1567 FILLER_33_11
*1568 FILLER_33_110
*1569 FILLER_33_113
*1570 FILLER_33_123
*1571 FILLER_33_134
*1572 FILLER_33_140
*1573 FILLER_33_149
*1574 FILLER_33_160
*1575 FILLER_33_169
*1576 FILLER_33_17
*1577 FILLER_33_178
*1578 FILLER_33_189
*1579 FILLER_33_197
*1580 FILLER_33_209
*1581 FILLER_33_221
*1582 FILLER_33_225
*1583 FILLER_33_237
*1584 FILLER_33_249
*1585 FILLER_33_261
*1586 FILLER_33_273
*1587 FILLER_33_279
*1588 FILLER_33_281
*1589 FILLER_33_293
*1590 FILLER_33_3
*1591 FILLER_33_35
*1592 FILLER_33_43
*1593 FILLER_33_52
*1594 FILLER_33_57
*1595 FILLER_33_68
*1596 FILLER_33_72
*1597 FILLER_33_78
*1598 FILLER_33_91
*1599 FILLER_33_99
*1600 FILLER_34_106
*1601 FILLER_34_118
*1602 FILLER_34_129
*1603 FILLER_34_137
*1604 FILLER_34_141
*1605 FILLER_34_153
*1606 FILLER_34_165
*1607 FILLER_34_172
*1608 FILLER_34_181
*1609 FILLER_34_193
*1610 FILLER_34_197
*1611 FILLER_34_201
*1612 FILLER_34_207
*1613 FILLER_34_219
*1614 FILLER_34_22
*1615 FILLER_34_231
*1616 FILLER_34_243
*1617 FILLER_34_251
*1618 FILLER_34_253
*1619 FILLER_34_265
*1620 FILLER_34_277
*1621 FILLER_34_289
*1622 FILLER_34_29
*1623 FILLER_34_297
*1624 FILLER_34_3
*1625 FILLER_34_35
*1626 FILLER_34_47
*1627 FILLER_34_54
*1628 FILLER_34_67
*1629 FILLER_34_79
*1630 FILLER_34_83
*1631 FILLER_34_85
*1632 FILLER_34_95
*1633 FILLER_35_101
*1634 FILLER_35_109
*1635 FILLER_35_113
*1636 FILLER_35_125
*1637 FILLER_35_137
*1638 FILLER_35_144
*1639 FILLER_35_148
*1640 FILLER_35_156
*1641 FILLER_35_169
*1642 FILLER_35_176
*1643 FILLER_35_188
*1644 FILLER_35_200
*1645 FILLER_35_212
*1646 FILLER_35_225
*1647 FILLER_35_235
*1648 FILLER_35_247
*1649 FILLER_35_259
*1650 FILLER_35_26
*1651 FILLER_35_271
*1652 FILLER_35_279
*1653 FILLER_35_281
*1654 FILLER_35_293
*1655 FILLER_35_3
*1656 FILLER_35_36
*1657 FILLER_35_44
*1658 FILLER_35_49
*1659 FILLER_35_55
*1660 FILLER_35_57
*1661 FILLER_35_67
*1662 FILLER_35_79
*1663 FILLER_35_88
*1664 FILLER_35_96
*1665 FILLER_36_104
*1666 FILLER_36_112
*1667 FILLER_36_12
*1668 FILLER_36_123
*1669 FILLER_36_131
*1670 FILLER_36_139
*1671 FILLER_36_141
*1672 FILLER_36_151
*1673 FILLER_36_163
*1674 FILLER_36_171
*1675 FILLER_36_183
*1676 FILLER_36_194
*1677 FILLER_36_197
*1678 FILLER_36_205
*1679 FILLER_36_214
*1680 FILLER_36_226
*1681 FILLER_36_23
*1682 FILLER_36_238
*1683 FILLER_36_250
*1684 FILLER_36_253
*1685 FILLER_36_265
*1686 FILLER_36_27
*1687 FILLER_36_277
*1688 FILLER_36_289
*1689 FILLER_36_29
*1690 FILLER_36_297
*1691 FILLER_36_3
*1692 FILLER_36_39
*1693 FILLER_36_47
*1694 FILLER_36_52
*1695 FILLER_36_64
*1696 FILLER_36_75
*1697 FILLER_36_83
*1698 FILLER_36_85
*1699 FILLER_36_93
*1700 FILLER_37_108
*1701 FILLER_37_113
*1702 FILLER_37_125
*1703 FILLER_37_138
*1704 FILLER_37_146
*1705 FILLER_37_151
*1706 FILLER_37_160
*1707 FILLER_37_169
*1708 FILLER_37_17
*1709 FILLER_37_179
*1710 FILLER_37_192
*1711 FILLER_37_204
*1712 FILLER_37_212
*1713 FILLER_37_221
*1714 FILLER_37_225
*1715 FILLER_37_237
*1716 FILLER_37_249
*1717 FILLER_37_25
*1718 FILLER_37_261
*1719 FILLER_37_273
*1720 FILLER_37_279
*1721 FILLER_37_281
*1722 FILLER_37_293
*1723 FILLER_37_3
*1724 FILLER_37_36
*1725 FILLER_37_49
*1726 FILLER_37_55
*1727 FILLER_37_57
*1728 FILLER_37_69
*1729 FILLER_37_7
*1730 FILLER_37_81
*1731 FILLER_37_92
*1732 FILLER_38_107
*1733 FILLER_38_113
*1734 FILLER_38_122
*1735 FILLER_38_138
*1736 FILLER_38_141
*1737 FILLER_38_145
*1738 FILLER_38_153
*1739 FILLER_38_161
*1740 FILLER_38_169
*1741 FILLER_38_181
*1742 FILLER_38_193
*1743 FILLER_38_197
*1744 FILLER_38_206
*1745 FILLER_38_212
*1746 FILLER_38_22
*1747 FILLER_38_221
*1748 FILLER_38_225
*1749 FILLER_38_229
*1750 FILLER_38_241
*1751 FILLER_38_249
*1752 FILLER_38_253
*1753 FILLER_38_265
*1754 FILLER_38_277
*1755 FILLER_38_289
*1756 FILLER_38_29
*1757 FILLER_38_297
*1758 FILLER_38_3
*1759 FILLER_38_35
*1760 FILLER_38_41
*1761 FILLER_38_51
*1762 FILLER_38_63
*1763 FILLER_38_73
*1764 FILLER_38_81
*1765 FILLER_38_85
*1766 FILLER_38_94
*1767 FILLER_38_98
*1768 FILLER_39_10
*1769 FILLER_39_110
*1770 FILLER_39_113
*1771 FILLER_39_124
*1772 FILLER_39_136
*1773 FILLER_39_144
*1774 FILLER_39_155
*1775 FILLER_39_162
*1776 FILLER_39_169
*1777 FILLER_39_176
*1778 FILLER_39_18
*1779 FILLER_39_180
*1780 FILLER_39_188
*1781 FILLER_39_200
*1782 FILLER_39_212
*1783 FILLER_39_225
*1784 FILLER_39_237
*1785 FILLER_39_249
*1786 FILLER_39_261
*1787 FILLER_39_273
*1788 FILLER_39_279
*1789 FILLER_39_28
*1790 FILLER_39_281
*1791 FILLER_39_293
*1792 FILLER_39_3
*1793 FILLER_39_39
*1794 FILLER_39_51
*1795 FILLER_39_55
*1796 FILLER_39_57
*1797 FILLER_39_67
*1798 FILLER_39_73
*1799 FILLER_39_83
*1800 FILLER_39_98
*1801 FILLER_3_105