*SPEF "ieee 1481-1999"
*DESIGN "seven_segment_seconds"
*DATE "11:11:11 Fri 11 11, 1111"
*VENDOR "OpenRCX"
*PROGRAM "Parallel Extraction"
*VERSION "1.0"
*DESIGN_FLOW "NAME_SCOPE LOCAL" "PIN_CAP NONE"
*DIVIDER /
*DELIMITER :
*BUS_DELIMITER []
*T_UNIT 1 NS
*C_UNIT 1 PF
*R_UNIT 1 OHM
*L_UNIT 1 HENRY

*NAME_MAP
*1 io_in[0]
*2 io_in[1]
*3 io_in[2]
*4 io_in[3]
*5 io_in[4]
*6 io_in[5]
*7 io_in[6]
*8 io_in[7]
*9 io_out[0]
*10 io_out[1]
*11 io_out[2]
*12 io_out[3]
*13 io_out[4]
*14 io_out[5]
*15 io_out[6]
*16 io_out[7]
*19 _000_
*20 _001_
*21 _002_
*22 _003_
*23 _004_
*24 _005_
*25 _006_
*26 _007_
*27 _008_
*28 _009_
*29 _010_
*30 _011_
*31 _012_
*32 _013_
*33 _014_
*34 _015_
*35 _016_
*36 _017_
*37 _018_
*38 _019_
*39 _020_
*40 _021_
*41 _022_
*42 _023_
*43 _024_
*44 _025_
*45 _026_
*46 _027_
*47 _028_
*48 _029_
*49 _030_
*50 _031_
*51 _032_
*52 _033_
*53 _034_
*54 _035_
*55 _036_
*56 _037_
*57 _038_
*58 _039_
*59 _040_
*60 _041_
*61 _042_
*62 _043_
*63 _044_
*64 _045_
*65 _046_
*66 _047_
*67 _048_
*68 _049_
*69 _050_
*70 _051_
*71 _052_
*72 _053_
*73 _054_
*74 _055_
*75 _056_
*76 _057_
*77 _058_
*78 _059_
*79 _060_
*80 _061_
*81 _062_
*82 _063_
*83 _064_
*84 _065_
*85 _066_
*86 _067_
*87 _068_
*88 _069_
*89 _070_
*90 _071_
*91 _072_
*92 _073_
*93 _074_
*94 _075_
*95 _076_
*96 _077_
*97 _078_
*98 _079_
*99 clknet_0_io_in[0]
*100 clknet_1_0__leaf_io_in[0]
*101 clknet_1_1__leaf_io_in[0]
*102 net1
*103 second_counter\[0\]
*104 second_counter\[1\]
*105 second_counter\[2\]
*106 second_counter\[3\]
*107 second_counter\[4\]
*108 second_counter\[5\]
*109 second_counter\[6\]
*110 second_counter\[7\]
*111 second_counter\[8\]
*112 second_counter\[9\]
*113 seg7\.counter\[0\]
*114 seg7\.counter\[1\]
*115 seg7\.counter\[2\]
*116 seg7\.counter\[3\]
*117 FILLER_0_109
*118 FILLER_0_113
*119 FILLER_0_125
*120 FILLER_0_137
*121 FILLER_0_141
*122 FILLER_0_153
*123 FILLER_0_165
*124 FILLER_0_169
*125 FILLER_0_181
*126 FILLER_0_193
*127 FILLER_0_197
*128 FILLER_0_209
*129 FILLER_0_221
*130 FILLER_0_225
*131 FILLER_0_237
*132 FILLER_0_249
*133 FILLER_0_253
*134 FILLER_0_26
*135 FILLER_0_265
*136 FILLER_0_277
*137 FILLER_0_281
*138 FILLER_0_29
*139 FILLER_0_293
*140 FILLER_0_3
*141 FILLER_0_53
*142 FILLER_0_57
*143 FILLER_0_75
*144 FILLER_0_83
*145 FILLER_0_85
*146 FILLER_0_9
*147 FILLER_0_97
*148 FILLER_10_109
*149 FILLER_10_121
*150 FILLER_10_133
*151 FILLER_10_139
*152 FILLER_10_141
*153 FILLER_10_153
*154 FILLER_10_165
*155 FILLER_10_177
*156 FILLER_10_189
*157 FILLER_10_195
*158 FILLER_10_197
*159 FILLER_10_209
*160 FILLER_10_22
*161 FILLER_10_221
*162 FILLER_10_233
*163 FILLER_10_245
*164 FILLER_10_251
*165 FILLER_10_253
*166 FILLER_10_265
*167 FILLER_10_277
*168 FILLER_10_289
*169 FILLER_10_29
*170 FILLER_10_297
*171 FILLER_10_3
*172 FILLER_10_48
*173 FILLER_10_66
*174 FILLER_10_78
*175 FILLER_10_85
*176 FILLER_10_97
*177 FILLER_11_110
*178 FILLER_11_113
*179 FILLER_11_125
*180 FILLER_11_137
*181 FILLER_11_149
*182 FILLER_11_161
*183 FILLER_11_167
*184 FILLER_11_169
*185 FILLER_11_181
*186 FILLER_11_193
*187 FILLER_11_205
*188 FILLER_11_21
*189 FILLER_11_217
*190 FILLER_11_223
*191 FILLER_11_225
*192 FILLER_11_237
*193 FILLER_11_249
*194 FILLER_11_261
*195 FILLER_11_273
*196 FILLER_11_279
*197 FILLER_11_281
*198 FILLER_11_293
*199 FILLER_11_3
*200 FILLER_11_41
*201 FILLER_11_53
*202 FILLER_11_57
*203 FILLER_11_70
*204 FILLER_11_78
*205 FILLER_11_86
*206 FILLER_11_98
*207 FILLER_12_107
*208 FILLER_12_119
*209 FILLER_12_131
*210 FILLER_12_139
*211 FILLER_12_141
*212 FILLER_12_153
*213 FILLER_12_165
*214 FILLER_12_177
*215 FILLER_12_189
*216 FILLER_12_195
*217 FILLER_12_197
*218 FILLER_12_20
*219 FILLER_12_209
*220 FILLER_12_221
*221 FILLER_12_233
*222 FILLER_12_245
*223 FILLER_12_251
*224 FILLER_12_253
*225 FILLER_12_265
*226 FILLER_12_277
*227 FILLER_12_289
*228 FILLER_12_29
*229 FILLER_12_297
*230 FILLER_12_3
*231 FILLER_12_41
*232 FILLER_12_53
*233 FILLER_12_65
*234 FILLER_12_77
*235 FILLER_12_83
*236 FILLER_12_85
*237 FILLER_12_89
*238 FILLER_12_95
*239 FILLER_13_111
*240 FILLER_13_113
*241 FILLER_13_12
*242 FILLER_13_125
*243 FILLER_13_137
*244 FILLER_13_149
*245 FILLER_13_161
*246 FILLER_13_167
*247 FILLER_13_169
*248 FILLER_13_181
*249 FILLER_13_193
*250 FILLER_13_205
*251 FILLER_13_217
*252 FILLER_13_223
*253 FILLER_13_225
*254 FILLER_13_23
*255 FILLER_13_237
*256 FILLER_13_249
*257 FILLER_13_261
*258 FILLER_13_273
*259 FILLER_13_279
*260 FILLER_13_281
*261 FILLER_13_293
*262 FILLER_13_3
*263 FILLER_13_35
*264 FILLER_13_47
*265 FILLER_13_52
*266 FILLER_13_57
*267 FILLER_13_66
*268 FILLER_13_75
*269 FILLER_13_87
*270 FILLER_13_99
*271 FILLER_14_109
*272 FILLER_14_121
*273 FILLER_14_133
*274 FILLER_14_139
*275 FILLER_14_141
*276 FILLER_14_15
*277 FILLER_14_153
*278 FILLER_14_165
*279 FILLER_14_177
*280 FILLER_14_189
*281 FILLER_14_195
*282 FILLER_14_197
*283 FILLER_14_209
*284 FILLER_14_221
*285 FILLER_14_233
*286 FILLER_14_245
*287 FILLER_14_251
*288 FILLER_14_253
*289 FILLER_14_26
*290 FILLER_14_265
*291 FILLER_14_277
*292 FILLER_14_289
*293 FILLER_14_29
*294 FILLER_14_297
*295 FILLER_14_3
*296 FILLER_14_33
*297 FILLER_14_43
*298 FILLER_14_51
*299 FILLER_14_61
*300 FILLER_14_69
*301 FILLER_14_75
*302 FILLER_14_83
*303 FILLER_14_85
*304 FILLER_14_97
*305 FILLER_15_102
*306 FILLER_15_110
*307 FILLER_15_113
*308 FILLER_15_125
*309 FILLER_15_137
*310 FILLER_15_149
*311 FILLER_15_15
*312 FILLER_15_161
*313 FILLER_15_167
*314 FILLER_15_169
*315 FILLER_15_181
*316 FILLER_15_193
*317 FILLER_15_205
*318 FILLER_15_217
*319 FILLER_15_223
*320 FILLER_15_225
*321 FILLER_15_237
*322 FILLER_15_249
*323 FILLER_15_261
*324 FILLER_15_27
*325 FILLER_15_273
*326 FILLER_15_279
*327 FILLER_15_281
*328 FILLER_15_293
*329 FILLER_15_3
*330 FILLER_15_39
*331 FILLER_15_45
*332 FILLER_15_53
*333 FILLER_15_57
*334 FILLER_15_64
*335 FILLER_15_68
*336 FILLER_15_78
*337 FILLER_15_90
*338 FILLER_16_10
*339 FILLER_16_102
*340 FILLER_16_114
*341 FILLER_16_126
*342 FILLER_16_138
*343 FILLER_16_141
*344 FILLER_16_153
*345 FILLER_16_165
*346 FILLER_16_177
*347 FILLER_16_189
*348 FILLER_16_195
*349 FILLER_16_197
*350 FILLER_16_209
*351 FILLER_16_22
*352 FILLER_16_221
*353 FILLER_16_233
*354 FILLER_16_245
*355 FILLER_16_251
*356 FILLER_16_253
*357 FILLER_16_265
*358 FILLER_16_277
*359 FILLER_16_289
*360 FILLER_16_29
*361 FILLER_16_297
*362 FILLER_16_3
*363 FILLER_16_42
*364 FILLER_16_50
*365 FILLER_16_60
*366 FILLER_16_72
*367 FILLER_16_85
*368 FILLER_16_93
*369 FILLER_17_104
*370 FILLER_17_11
*371 FILLER_17_113
*372 FILLER_17_125
*373 FILLER_17_137
*374 FILLER_17_149
*375 FILLER_17_161
*376 FILLER_17_167
*377 FILLER_17_169
*378 FILLER_17_181
*379 FILLER_17_193
*380 FILLER_17_205
*381 FILLER_17_217
*382 FILLER_17_223
*383 FILLER_17_225
*384 FILLER_17_237
*385 FILLER_17_249
*386 FILLER_17_26
*387 FILLER_17_261
*388 FILLER_17_273
*389 FILLER_17_279
*390 FILLER_17_281
*391 FILLER_17_293
*392 FILLER_17_3
*393 FILLER_17_33
*394 FILLER_17_45
*395 FILLER_17_53
*396 FILLER_17_57
*397 FILLER_17_68
*398 FILLER_17_7
*399 FILLER_17_80
*400 FILLER_17_92
*401 FILLER_18_109
*402 FILLER_18_121
*403 FILLER_18_133
*404 FILLER_18_139
*405 FILLER_18_141
*406 FILLER_18_153
*407 FILLER_18_165
*408 FILLER_18_177
*409 FILLER_18_189
*410 FILLER_18_195
*411 FILLER_18_197
*412 FILLER_18_20
*413 FILLER_18_209
*414 FILLER_18_221
*415 FILLER_18_233
*416 FILLER_18_245
*417 FILLER_18_251
*418 FILLER_18_253
*419 FILLER_18_265
*420 FILLER_18_277
*421 FILLER_18_289
*422 FILLER_18_29
*423 FILLER_18_297
*424 FILLER_18_3
*425 FILLER_18_34
*426 FILLER_18_41
*427 FILLER_18_53
*428 FILLER_18_57
*429 FILLER_18_61
*430 FILLER_18_69
*431 FILLER_18_8
*432 FILLER_18_82
*433 FILLER_18_85
*434 FILLER_18_97
*435 FILLER_19_100
*436 FILLER_19_113
*437 FILLER_19_125
*438 FILLER_19_137
*439 FILLER_19_149
*440 FILLER_19_161
*441 FILLER_19_167
*442 FILLER_19_169
*443 FILLER_19_17
*444 FILLER_19_181
*445 FILLER_19_193
*446 FILLER_19_205
*447 FILLER_19_217
*448 FILLER_19_223
*449 FILLER_19_225
*450 FILLER_19_237
*451 FILLER_19_249
*452 FILLER_19_261
*453 FILLER_19_27
*454 FILLER_19_273
*455 FILLER_19_279
*456 FILLER_19_281
*457 FILLER_19_293
*458 FILLER_19_3
*459 FILLER_19_39
*460 FILLER_19_45
*461 FILLER_19_51
*462 FILLER_19_55
*463 FILLER_19_57
*464 FILLER_19_64
*465 FILLER_19_76
*466 FILLER_19_88
*467 FILLER_19_9
*468 FILLER_1_105
*469 FILLER_1_111
*470 FILLER_1_113
*471 FILLER_1_125
*472 FILLER_1_137
*473 FILLER_1_149
*474 FILLER_1_15
*475 FILLER_1_161
*476 FILLER_1_167
*477 FILLER_1_169
*478 FILLER_1_181
*479 FILLER_1_193
*480 FILLER_1_205
*481 FILLER_1_217
*482 FILLER_1_223
*483 FILLER_1_225
*484 FILLER_1_237
*485 FILLER_1_249
*486 FILLER_1_261
*487 FILLER_1_273
*488 FILLER_1_279
*489 FILLER_1_281
*490 FILLER_1_293
*491 FILLER_1_3
*492 FILLER_1_36
*493 FILLER_1_48
*494 FILLER_1_57
*495 FILLER_1_69
*496 FILLER_1_81
*497 FILLER_1_93
*498 FILLER_20_109
*499 FILLER_20_11
*500 FILLER_20_121
*501 FILLER_20_133
*502 FILLER_20_139
*503 FILLER_20_141
*504 FILLER_20_153
*505 FILLER_20_165
*506 FILLER_20_177
*507 FILLER_20_189
*508 FILLER_20_195
*509 FILLER_20_197
*510 FILLER_20_209
*511 FILLER_20_21
*512 FILLER_20_221
*513 FILLER_20_233
*514 FILLER_20_245
*515 FILLER_20_251
*516 FILLER_20_253
*517 FILLER_20_265
*518 FILLER_20_27
*519 FILLER_20_277
*520 FILLER_20_289
*521 FILLER_20_29
*522 FILLER_20_297
*523 FILLER_20_3
*524 FILLER_20_42
*525 FILLER_20_49
*526 FILLER_20_58
*527 FILLER_20_70
*528 FILLER_20_82
*529 FILLER_20_85
*530 FILLER_20_97
*531 FILLER_21_104
*532 FILLER_21_11
*533 FILLER_21_113
*534 FILLER_21_125
*535 FILLER_21_137
*536 FILLER_21_149
*537 FILLER_21_16
*538 FILLER_21_161
*539 FILLER_21_167
*540 FILLER_21_169
*541 FILLER_21_181
*542 FILLER_21_193
*543 FILLER_21_205
*544 FILLER_21_217
*545 FILLER_21_223
*546 FILLER_21_225
*547 FILLER_21_237
*548 FILLER_21_249
*549 FILLER_21_261
*550 FILLER_21_27
*551 FILLER_21_273
*552 FILLER_21_279
*553 FILLER_21_281
*554 FILLER_21_293
*555 FILLER_21_3
*556 FILLER_21_38
*557 FILLER_21_46
*558 FILLER_21_54
*559 FILLER_21_57
*560 FILLER_21_61
*561 FILLER_21_71
*562 FILLER_21_80
*563 FILLER_21_92
*564 FILLER_22_109
*565 FILLER_22_121
*566 FILLER_22_133
*567 FILLER_22_139
*568 FILLER_22_141
*569 FILLER_22_153
*570 FILLER_22_165
*571 FILLER_22_177
*572 FILLER_22_189
*573 FILLER_22_195
*574 FILLER_22_197
*575 FILLER_22_209
*576 FILLER_22_221
*577 FILLER_22_233
*578 FILLER_22_245
*579 FILLER_22_25
*580 FILLER_22_251
*581 FILLER_22_253
*582 FILLER_22_265
*583 FILLER_22_277
*584 FILLER_22_289
*585 FILLER_22_29
*586 FILLER_22_297
*587 FILLER_22_3
*588 FILLER_22_40
*589 FILLER_22_52
*590 FILLER_22_56
*591 FILLER_22_60
*592 FILLER_22_72
*593 FILLER_22_78
*594 FILLER_22_8
*595 FILLER_22_85
*596 FILLER_22_97
*597 FILLER_23_100
*598 FILLER_23_113
*599 FILLER_23_125
*600 FILLER_23_137
*601 FILLER_23_14
*602 FILLER_23_149
*603 FILLER_23_161
*604 FILLER_23_167
*605 FILLER_23_169
*606 FILLER_23_181
*607 FILLER_23_193
*608 FILLER_23_205
*609 FILLER_23_217
*610 FILLER_23_223
*611 FILLER_23_225
*612 FILLER_23_237
*613 FILLER_23_249
*614 FILLER_23_25
*615 FILLER_23_261
*616 FILLER_23_273
*617 FILLER_23_279
*618 FILLER_23_281
*619 FILLER_23_293
*620 FILLER_23_3
*621 FILLER_23_35
*622 FILLER_23_44
*623 FILLER_23_57
*624 FILLER_23_64
*625 FILLER_23_76
*626 FILLER_23_88
*627 FILLER_24_109
*628 FILLER_24_121
*629 FILLER_24_133
*630 FILLER_24_139
*631 FILLER_24_141
*632 FILLER_24_15
*633 FILLER_24_153
*634 FILLER_24_165
*635 FILLER_24_177
*636 FILLER_24_189
*637 FILLER_24_195
*638 FILLER_24_197
*639 FILLER_24_209
*640 FILLER_24_21
*641 FILLER_24_221
*642 FILLER_24_233
*643 FILLER_24_245
*644 FILLER_24_251
*645 FILLER_24_253
*646 FILLER_24_26
*647 FILLER_24_265
*648 FILLER_24_277
*649 FILLER_24_289
*650 FILLER_24_29
*651 FILLER_24_297
*652 FILLER_24_3
*653 FILLER_24_41
*654 FILLER_24_53
*655 FILLER_24_72
*656 FILLER_24_85
*657 FILLER_24_97
*658 FILLER_25_104
*659 FILLER_25_113
*660 FILLER_25_125
*661 FILLER_25_137
*662 FILLER_25_149
*663 FILLER_25_15
*664 FILLER_25_161
*665 FILLER_25_167
*666 FILLER_25_169
*667 FILLER_25_181
*668 FILLER_25_193
*669 FILLER_25_205
*670 FILLER_25_217
*671 FILLER_25_223
*672 FILLER_25_225
*673 FILLER_25_237
*674 FILLER_25_249
*675 FILLER_25_261
*676 FILLER_25_27
*677 FILLER_25_273
*678 FILLER_25_279
*679 FILLER_25_281
*680 FILLER_25_293
*681 FILLER_25_3
*682 FILLER_25_38
*683 FILLER_25_49
*684 FILLER_25_55
*685 FILLER_25_57
*686 FILLER_25_68
*687 FILLER_25_80
*688 FILLER_25_92
*689 FILLER_26_109
*690 FILLER_26_12
*691 FILLER_26_121
*692 FILLER_26_133
*693 FILLER_26_139
*694 FILLER_26_141
*695 FILLER_26_153
*696 FILLER_26_165
*697 FILLER_26_177
*698 FILLER_26_189
*699 FILLER_26_195
*700 FILLER_26_197
*701 FILLER_26_209
*702 FILLER_26_221
*703 FILLER_26_233
*704 FILLER_26_24
*705 FILLER_26_245
*706 FILLER_26_251
*707 FILLER_26_253
*708 FILLER_26_265
*709 FILLER_26_277
*710 FILLER_26_289
*711 FILLER_26_29
*712 FILLER_26_297
*713 FILLER_26_3
*714 FILLER_26_33
*715 FILLER_26_42
*716 FILLER_26_53
*717 FILLER_26_64
*718 FILLER_26_76
*719 FILLER_26_85
*720 FILLER_26_97
*721 FILLER_27_100
*722 FILLER_27_113
*723 FILLER_27_125
*724 FILLER_27_137
*725 FILLER_27_149
*726 FILLER_27_15
*727 FILLER_27_161
*728 FILLER_27_167
*729 FILLER_27_169
*730 FILLER_27_181
*731 FILLER_27_193
*732 FILLER_27_205
*733 FILLER_27_217
*734 FILLER_27_223
*735 FILLER_27_225
*736 FILLER_27_237
*737 FILLER_27_249
*738 FILLER_27_25
*739 FILLER_27_261
*740 FILLER_27_273
*741 FILLER_27_279
*742 FILLER_27_281
*743 FILLER_27_293
*744 FILLER_27_3
*745 FILLER_27_37
*746 FILLER_27_48
*747 FILLER_27_57
*748 FILLER_27_64
*749 FILLER_27_76
*750 FILLER_27_88
*751 FILLER_28_109
*752 FILLER_28_121
*753 FILLER_28_133
*754 FILLER_28_139
*755 FILLER_28_141
*756 FILLER_28_15
*757 FILLER_28_153
*758 FILLER_28_165
*759 FILLER_28_177
*760 FILLER_28_189
*761 FILLER_28_195
*762 FILLER_28_197
*763 FILLER_28_209
*764 FILLER_28_221
*765 FILLER_28_233
*766 FILLER_28_245
*767 FILLER_28_251
*768 FILLER_28_253
*769 FILLER_28_265
*770 FILLER_28_27
*771 FILLER_28_277
*772 FILLER_28_289
*773 FILLER_28_29
*774 FILLER_28_297
*775 FILLER_28_3
*776 FILLER_28_41
*777 FILLER_28_53
*778 FILLER_28_65
*779 FILLER_28_77
*780 FILLER_28_83
*781 FILLER_28_85
*782 FILLER_28_97
*783 FILLER_29_105
*784 FILLER_29_111
*785 FILLER_29_113
*786 FILLER_29_125
*787 FILLER_29_137
*788 FILLER_29_149
*789 FILLER_29_15
*790 FILLER_29_161
*791 FILLER_29_167
*792 FILLER_29_169
*793 FILLER_29_181
*794 FILLER_29_193
*795 FILLER_29_205
*796 FILLER_29_217
*797 FILLER_29_223
*798 FILLER_29_225
*799 FILLER_29_23
*800 FILLER_29_237
*801 FILLER_29_249
*802 FILLER_29_261
*803 FILLER_29_273
*804 FILLER_29_279
*805 FILLER_29_281
*806 FILLER_29_293
*807 FILLER_29_3
*808 FILLER_29_39
*809 FILLER_29_51
*810 FILLER_29_55
*811 FILLER_29_57
*812 FILLER_29_69
*813 FILLER_29_81
*814 FILLER_29_93
*815 FILLER_2_109
*816 FILLER_2_121
*817 FILLER_2_133
*818 FILLER_2_139
*819 FILLER_2_141
*820 FILLER_2_153
*821 FILLER_2_165
*822 FILLER_2_177
*823 FILLER_2_189
*824 FILLER_2_195
*825 FILLER_2_197
*826 FILLER_2_209
*827 FILLER_2_22
*828 FILLER_2_221
*829 FILLER_2_233
*830 FILLER_2_245
*831 FILLER_2_251
*832 FILLER_2_253
*833 FILLER_2_265
*834 FILLER_2_277
*835 FILLER_2_289
*836 FILLER_2_29
*837 FILLER_2_297
*838 FILLER_2_3
*839 FILLER_2_37
*840 FILLER_2_55
*841 FILLER_2_67
*842 FILLER_2_79
*843 FILLER_2_83
*844 FILLER_2_85
*845 FILLER_2_97
*846 FILLER_30_109
*847 FILLER_30_11
*848 FILLER_30_121
*849 FILLER_30_133
*850 FILLER_30_139
*851 FILLER_30_141
*852 FILLER_30_153
*853 FILLER_30_165
*854 FILLER_30_17
*855 FILLER_30_177
*856 FILLER_30_189
*857 FILLER_30_195
*858 FILLER_30_197
*859 FILLER_30_209
*860 FILLER_30_221
*861 FILLER_30_233
*862 FILLER_30_245
*863 FILLER_30_25
*864 FILLER_30_251
*865 FILLER_30_253
*866 FILLER_30_265
*867 FILLER_30_277
*868 FILLER_30_289
*869 FILLER_30_29
*870 FILLER_30_297
*871 FILLER_30_3
*872 FILLER_30_41
*873 FILLER_30_53
*874 FILLER_30_64
*875 FILLER_30_75
*876 FILLER_30_83
*877 FILLER_30_85
*878 FILLER_30_97
*879 FILLER_31_105
*880 FILLER_31_11
*881 FILLER_31_111
*882 FILLER_31_113
*883 FILLER_31_125
*884 FILLER_31_137
*885 FILLER_31_149
*886 FILLER_31_161
*887 FILLER_31_167
*888 FILLER_31_169
*889 FILLER_31_181
*890 FILLER_31_19
*891 FILLER_31_193
*892 FILLER_31_205
*893 FILLER_31_217
*894 FILLER_31_223
*895 FILLER_31_225
*896 FILLER_31_237
*897 FILLER_31_249
*898 FILLER_31_261
*899 FILLER_31_273
*900 FILLER_31_279
*901 FILLER_31_281
*902 FILLER_31_293
*903 FILLER_31_3
*904 FILLER_31_31
*905 FILLER_31_37
*906 FILLER_31_41
*907 FILLER_31_53
*908 FILLER_31_57
*909 FILLER_31_69
*910 FILLER_31_81
*911 FILLER_31_93
*912 FILLER_32_109
*913 FILLER_32_121
*914 FILLER_32_133
*915 FILLER_32_139
*916 FILLER_32_141
*917 FILLER_32_15
*918 FILLER_32_153
*919 FILLER_32_165
*920 FILLER_32_177
*921 FILLER_32_189
*922 FILLER_32_195
*923 FILLER_32_197
*924 FILLER_32_209
*925 FILLER_32_221
*926 FILLER_32_233
*927 FILLER_32_245
*928 FILLER_32_251
*929 FILLER_32_253
*930 FILLER_32_265
*931 FILLER_32_27
*932 FILLER_32_277
*933 FILLER_32_289
*934 FILLER_32_29
*935 FILLER_32_297
*936 FILLER_32_3
*937 FILLER_32_41
*938 FILLER_32_61
*939 FILLER_32_73
*940 FILLER_32_81
*941 FILLER_32_85
*942 FILLER_32_97
*943 FILLER_33_105
*944 FILLER_33_111
*945 FILLER_33_113
*946 FILLER_33_125
*947 FILLER_33_137
*948 FILLER_33_149
*949 FILLER_33_15
*950 FILLER_33_161
*951 FILLER_33_167
*952 FILLER_33_169
*953 FILLER_33_181
*954 FILLER_33_193
*955 FILLER_33_205
*956 FILLER_33_217
*957 FILLER_33_223
*958 FILLER_33_225
*959 FILLER_33_237
*960 FILLER_33_249
*961 FILLER_33_261
*962 FILLER_33_27
*963 FILLER_33_273
*964 FILLER_33_279
*965 FILLER_33_281
*966 FILLER_33_293
*967 FILLER_33_3
*968 FILLER_33_39
*969 FILLER_33_48
*970 FILLER_33_57
*971 FILLER_33_69
*972 FILLER_33_81
*973 FILLER_33_93
*974 FILLER_34_109
*975 FILLER_34_121
*976 FILLER_34_133
*977 FILLER_34_139
*978 FILLER_34_141
*979 FILLER_34_15
*980 FILLER_34_153
*981 FILLER_34_165
*982 FILLER_34_177
*983 FILLER_34_189
*984 FILLER_34_195
*985 FILLER_34_197
*986 FILLER_34_209
*987 FILLER_34_221
*988 FILLER_34_233
*989 FILLER_34_245
*990 FILLER_34_251
*991 FILLER_34_253
*992 FILLER_34_265
*993 FILLER_34_27
*994 FILLER_34_277
*995 FILLER_34_289
*996 FILLER_34_29
*997 FILLER_34_297
*998 FILLER_34_3
*999 FILLER_34_41
*1000 FILLER_34_53
*1001 FILLER_34_65
*1002 FILLER_34_77
*1003 FILLER_34_83
*1004 FILLER_34_85
*1005 FILLER_34_97
*1006 FILLER_35_105
*1007 FILLER_35_111
*1008 FILLER_35_113
*1009 FILLER_35_125
*1010 FILLER_35_137
*1011 FILLER_35_149
*1012 FILLER_35_15
*1013 FILLER_35_161
*1014 FILLER_35_167
*1015 FILLER_35_169
*1016 FILLER_35_181
*1017 FILLER_35_193
*1018 FILLER_35_205
*1019 FILLER_35_217
*1020 FILLER_35_223
*1021 FILLER_35_225
*1022 FILLER_35_237
*1023 FILLER_35_249
*1024 FILLER_35_261
*1025 FILLER_35_27
*1026 FILLER_35_273
*1027 FILLER_35_279
*1028 FILLER_35_281
*1029 FILLER_35_293
*1030 FILLER_35_3
*1031 FILLER_35_39
*1032 FILLER_35_51
*1033 FILLER_35_55
*1034 FILLER_35_57
*1035 FILLER_35_69
*1036 FILLER_35_81
*1037 FILLER_35_93
*1038 FILLER_36_109
*1039 FILLER_36_121
*1040 FILLER_36_133
*1041 FILLER_36_139
*1042 FILLER_36_141
*1043 FILLER_36_15
*1044 FILLER_36_153
*1045 FILLER_36_165
*1046 FILLER_36_177
*1047 FILLER_36_189
*1048 FILLER_36_195
*1049 FILLER_36_197
*1050 FILLER_36_209
*1051 FILLER_36_221
*1052 FILLER_36_233
*1053 FILLER_36_245
*1054 FILLER_36_251
*1055 FILLER_36_253
*1056 FILLER_36_265
*1057 FILLER_36_27
*1058 FILLER_36_277
*1059 FILLER_36_289
*1060 FILLER_36_29
*1061 FILLER_36_297
*1062 FILLER_36_3
*1063 FILLER_36_41
*1064 FILLER_36_53
*1065 FILLER_36_65
*1066 FILLER_36_77
*1067 FILLER_36_83
*1068 FILLER_36_85
*1069 FILLER_36_97
*1070 FILLER_37_105
*1071 FILLER_37_111
*1072 FILLER_37_113
*1073 FILLER_37_125
*1074 FILLER_37_137
*1075 FILLER_37_149
*1076 FILLER_37_15
*1077 FILLER_37_161
*1078 FILLER_37_167
*1079 FILLER_37_169
*1080 FILLER_37_181
*1081 FILLER_37_193
*1082 FILLER_37_205
*1083 FILLER_37_217
*1084 FILLER_37_223
*1085 FILLER_37_225
*1086 FILLER_37_237
*1087 FILLER_37_249
*1088 FILLER_37_261
*1089 FILLER_37_27
*1090 FILLER_37_273
*1091 FILLER_37_279
*1092 FILLER_37_281
*1093 FILLER_37_293
*1094 FILLER_37_3
*1095 FILLER_37_39
*1096 FILLER_37_51
*1097 FILLER_37_55
*1098 FILLER_37_57
*1099 FILLER_37_69
*1100 FILLER_37_81
*1101 FILLER_37_93
*1102 FILLER_38_109
*1103 FILLER_38_121
*1104 FILLER_38_133
*1105 FILLER_38_139
*1106 FILLER_38_141
*1107 FILLER_38_15
*1108 FILLER_38_153
*1109 FILLER_38_165
*1110 FILLER_38_177
*1111 FILLER_38_189
*1112 FILLER_38_195
*1113 FILLER_38_197
*1114 FILLER_38_209
*1115 FILLER_38_221
*1116 FILLER_38_233
*1117 FILLER_38_245
*1118 FILLER_38_251
*1119 FILLER_38_253
*1120 FILLER_38_265
*1121 FILLER_38_27
*1122 FILLER_38_277
*1123 FILLER_38_289
*1124 FILLER_38_29
*1125 FILLER_38_297
*1126 FILLER_38_3
*1127 FILLER_38_41
*1128 FILLER_38_53
*1129 FILLER_38_65
*1130 FILLER_38_77
*1131 FILLER_38_83
*1132 FILLER_38_85
*1133 FILLER_38_97
*1134 FILLER_39_105
*1135 FILLER_39_111
*1136 FILLER_39_113
*1137 FILLER_39_125
*1138 FILLER_39_137
*1139 FILLER_39_149
*1140 FILLER_39_15
*1141 FILLER_39_161
*1142 FILLER_39_167
*1143 FILLER_39_169
*1144 FILLER_39_181
*1145 FILLER_39_193
*1146 FILLER_39_205
*1147 FILLER_39_217
*1148 FILLER_39_223
*1149 FILLER_39_225
*1150 FILLER_39_237
*1151 FILLER_39_249
*1152 FILLER_39_261
*1153 FILLER_39_27
*1154 FILLER_39_273
*1155 FILLER_39_279
*1156 FILLER_39_281
*1157 FILLER_39_293
*1158 FILLER_39_3
*1159 FILLER_39_39
*1160 FILLER_39_51
*1161 FILLER_39_55
*1162 FILLER_39_57
*1163 FILLER_39_69
*1164 FILLER_39_81
*1165 FILLER_39_93
*1166 FILLER_3_110
*1167 FILLER_3_113
*1168 FILLER_3_125
*1169 FILLER_3_137
*1170 FILLER_3_149
*1171 FILLER_3_15
*1172 FILLER_3_161
*1173 FILLER_3_167
*1174 FILLER_3_169
*1175 FILLER_3_181
*1176 FILLER_3_193
*1177 FILLER_3_205
*1178 FILLER_3_217
*1179 FILLER_3_223
*1180 FILLER_3_225
*1181 FILLER_3_237
*1182 FILLER_3_249
*1183 FILLER_3_261
*1184 FILLER_3_273
*1185 FILLER_3_279
*1186 FILLER_3_281
*1187 FILLER_3_293
*1188 FILLER_3_3
*1189 FILLER_3_34
*1190 FILLER_3_54
*1191 FILLER_3_57
*1192 FILLER_3_69
*1193 FILLER_3_74
*1194 FILLER_3_86
*1195 FILLER_3_98
*1196 FILLER_40_109
*1197 FILLER_40_121
*1198 FILLER_40_133
*1199 FILLER_40_139
*1200 FILLER_40_141
*1201 FILLER_40_15
*1202 FILLER_40_153
*1203 FILLER_40_165
*1204 FILLER_40_177
*1205 FILLER_40_189
*1206 FILLER_40_195
*1207 FILLER_40_197
*1208 FILLER_40_209
*1209 FILLER_40_221
*1210 FILLER_40_233
*1211 FILLER_40_245
*1212 FILLER_40_251
*1213 FILLER_40_253
*1214 FILLER_40_265
*1215 FILLER_40_27
*1216 FILLER_40_277
*1217 FILLER_40_289
*1218 FILLER_40_29
*1219 FILLER_40_297
*1220 FILLER_40_3
*1221 FILLER_40_41
*1222 FILLER_40_53
*1223 FILLER_40_65
*1224 FILLER_40_77
*1225 FILLER_40_83
*1226 FILLER_40_85
*1227 FILLER_40_97
*1228 FILLER_41_105
*1229 FILLER_41_111
*1230 FILLER_41_113
*1231 FILLER_41_125
*1232 FILLER_41_137
*1233 FILLER_41_149
*1234 FILLER_41_15
*1235 FILLER_41_161
*1236 FILLER_41_167
*1237 FILLER_41_169
*1238 FILLER_41_181
*1239 FILLER_41_193
*1240 FILLER_41_205
*1241 FILLER_41_217
*1242 FILLER_41_223
*1243 FILLER_41_225
*1244 FILLER_41_237
*1245 FILLER_41_249
*1246 FILLER_41_261
*1247 FILLER_41_27
*1248 FILLER_41_273
*1249 FILLER_41_279
*1250 FILLER_41_281
*1251 FILLER_41_293
*1252 FILLER_41_3
*1253 FILLER_41_39
*1254 FILLER_41_51
*1255 FILLER_41_55
*1256 FILLER_41_57
*1257 FILLER_41_69
*1258 FILLER_41_81
*1259 FILLER_41_93
*1260 FILLER_42_109
*1261 FILLER_42_121
*1262 FILLER_42_133
*1263 FILLER_42_139
*1264 FILLER_42_141
*1265 FILLER_42_15
*1266 FILLER_42_153
*1267 FILLER_42_165
*1268 FILLER_42_177
*1269 FILLER_42_189
*1270 FILLER_42_195
*1271 FILLER_42_197
*1272 FILLER_42_209
*1273 FILLER_42_221
*1274 FILLER_42_233
*1275 FILLER_42_245
*1276 FILLER_42_251
*1277 FILLER_42_253
*1278 FILLER_42_265
*1279 FILLER_42_27
*1280 FILLER_42_277
*1281 FILLER_42_289
*1282 FILLER_42_29
*1283 FILLER_42_297
*1284 FILLER_42_3
*1285 FILLER_42_41
*1286 FILLER_42_53
*1287 FILLER_42_65
*1288 FILLER_42_77
*1289 FILLER_42_83
*1290 FILLER_42_85
*1291 FILLER_42_97
*1292 FILLER_43_105
*1293 FILLER_43_111
*1294 FILLER_43_113
*1295 FILLER_43_125
*1296 FILLER_43_137
*1297 FILLER_43_149
*1298 FILLER_43_15
*1299 FILLER_43_161
*1300 FILLER_43_167
*1301 FILLER_43_169
*1302 FILLER_43_181
*1303 FILLER_43_193
*1304 FILLER_43_205
*1305 FILLER_43_217
*1306 FILLER_43_223
*1307 FILLER_43_225
*1308 FILLER_43_237
*1309 FILLER_43_249
*1310 FILLER_43_261
*1311 FILLER_43_27
*1312 FILLER_43_273
*1313 FILLER_43_279
*1314 FILLER_43_281
*1315 FILLER_43_293
*1316 FILLER_43_3
*1317 FILLER_43_39
*1318 FILLER_43_51
*1319 FILLER_43_55
*1320 FILLER_43_57
*1321 FILLER_43_69
*1322 FILLER_43_81
*1323 FILLER_43_93
*1324 FILLER_44_109
*1325 FILLER_44_121
*1326 FILLER_44_133
*1327 FILLER_44_139
*1328 FILLER_44_141
*1329 FILLER_44_15
*1330 FILLER_44_153
*1331 FILLER_44_165
*1332 FILLER_44_177
*1333 FILLER_44_189
*1334 FILLER_44_195
*1335 FILLER_44_197
*1336 FILLER_44_209
*1337 FILLER_44_221
*1338 FILLER_44_233
*1339 FILLER_44_245
*1340 FILLER_44_251
*1341 FILLER_44_253
*1342 FILLER_44_265
*1343 FILLER_44_27
*1344 FILLER_44_277
*1345 FILLER_44_289
*1346 FILLER_44_29
*1347 FILLER_44_297
*1348 FILLER_44_3
*1349 FILLER_44_41
*1350 FILLER_44_53
*1351 FILLER_44_65
*1352 FILLER_44_77
*1353 FILLER_44_83
*1354 FILLER_44_85
*1355 FILLER_44_97
*1356 FILLER_45_105
*1357 FILLER_45_111
*1358 FILLER_45_113
*1359 FILLER_45_125
*1360 FILLER_45_137
*1361 FILLER_45_149
*1362 FILLER_45_15
*1363 FILLER_45_161
*1364 FILLER_45_167
*1365 FILLER_45_169
*1366 FILLER_45_181
*1367 FILLER_45_193
*1368 FILLER_45_205
*1369 FILLER_45_217
*1370 FILLER_45_223
*1371 FILLER_45_225
*1372 FILLER_45_237
*1373 FILLER_45_249
*1374 FILLER_45_261
*1375 FILLER_45_27
*1376 FILLER_45_273
*1377 FILLER_45_279
*1378 FILLER_45_281
*1379 FILLER_45_293
*1380 FILLER_45_3
*1381 FILLER_45_39
*1382 FILLER_45_51
*1383 FILLER_45_55
*1384 FILLER_45_57
*1385 FILLER_45_69
*1386 FILLER_45_81
*1387 FILLER_45_93
*1388 FILLER_46_109
*1389 FILLER_46_121
*1390 FILLER_46_133
*1391 FILLER_46_139
*1392 FILLER_46_141
*1393 FILLER_46_15
*1394 FILLER_46_153
*1395 FILLER_46_165
*1396 FILLER_46_177
*1397 FILLER_46_189
*1398 FILLER_46_195
*1399 FILLER_46_197
*1400 FILLER_46_209
*1401 FILLER_46_221
*1402 FILLER_46_233
*1403 FILLER_46_245
*1404 FILLER_46_251
*1405 FILLER_46_253
*1406 FILLER_46_265
*1407 FILLER_46_27
*1408 FILLER_46_277
*1409 FILLER_46_289
*1410 FILLER_46_29
*1411 FILLER_46_297
*1412 FILLER_46_3
*1413 FILLER_46_41
*1414 FILLER_46_53
*1415 FILLER_46_65
*1416 FILLER_46_77
*1417 FILLER_46_83
*1418 FILLER_46_85
*1419 FILLER_46_97
*1420 FILLER_47_105
*1421 FILLER_47_111
*1422 FILLER_47_113
*1423 FILLER_47_125
*1424 FILLER_47_137
*1425 FILLER_47_149
*1426 FILLER_47_15
*1427 FILLER_47_161
*1428 FILLER_47_167
*1429 FILLER_47_169
*1430 FILLER_47_181
*1431 FILLER_47_193
*1432 FILLER_47_205
*1433 FILLER_47_217
*1434 FILLER_47_223
*1435 FILLER_47_225
*1436 FILLER_47_237
*1437 FILLER_47_249
*1438 FILLER_47_261
*1439 FILLER_47_27
*1440 FILLER_47_273
*1441 FILLER_47_279
*1442 FILLER_47_281
*1443 FILLER_47_293
*1444 FILLER_47_3
*1445 FILLER_47_39
*1446 FILLER_47_51
*1447 FILLER_47_55
*1448 FILLER_47_57
*1449 FILLER_47_69
*1450 FILLER_47_81
*1451 FILLER_47_93
*1452 FILLER_48_109
*1453 FILLER_48_121
*1454 FILLER_48_133
*1455 FILLER_48_139
*1456 FILLER_48_141
*1457 FILLER_48_15
*1458 FILLER_48_153
*1459 FILLER_48_165
*1460 FILLER_48_177
*1461 FILLER_48_189
*1462 FILLER_48_195
*1463 FILLER_48_197
*1464 FILLER_48_209
*1465 FILLER_48_221
*1466 FILLER_48_233
*1467 FILLER_48_245
*1468 FILLER_48_251
*1469 FILLER_48_253
*1470 FILLER_48_265
*1471 FILLER_48_27
*1472 FILLER_48_277
*1473 FILLER_48_289
*1474 FILLER_48_29
*1475 FILLER_48_297
*1476 FILLER_48_3
*1477 FILLER_48_41
*1478 FILLER_48_53
*1479 FILLER_48_65
*1480 FILLER_48_77
*1481 FILLER_48_83
*1482 FILLER_48_85
*1483 FILLER_48_97
*1484 FILLER_49_105
*1485 FILLER_49_111
*1486 FILLER_49_113
*1487 FILLER_49_125
*1488 FILLER_49_137
*1489 FILLER_49_149
*1490 FILLER_49_15
*1491 FILLER_49_161
*1492 FILLER_49_167
*1493 FILLER_49_169
*1494 FILLER_49_181
*1495 FILLER_49_193
*1496 FILLER_49_205
*1497 FILLER_49_217
*1498 FILLER_49_223
*1499 FILLER_49_225
*1500 FILLER_49_237
*1501 FILLER_49_249
*1502 FILLER_49_261
*1503 FILLER_49_27
*1504 FILLER_49_273
*1505 FILLER_49_279
*1506 FILLER_49_281
*1507 FILLER_49_293
*1508 FILLER_49_3
*1509 FILLER_49_39
*1510 FILLER_49_51
*1511 FILLER_49_55
*1512 FILLER_49_57
*1513 FILLER_49_69
*1514 FILLER_49_81
*1515 FILLER_49_93
*1516 FILLER_4_109
*1517 FILLER_4_121
*1518 FILLER_4_133
*1519 FILLER_4_139
*1520 FILLER_4_141
*1521 FILLER_4_153
*1522 FILLER_4_165
*1523 FILLER_4_177
*1524 FILLER_4_189
*1525 FILLER_4_195
*1526 FILLER_4_197
*1527 FILLER_4_209
*1528 FILLER_4_21
*1529 FILLER_4_221
*1530 FILLER_4_233
*1531 FILLER_4_245
*1532 FILLER_4_251
*1533 FILLER_4_253
*1534 FILLER_4_265
*1535 FILLER_4_27
*1536 FILLER_4_277
*1537 FILLER_4_289
*1538 FILLER_4_29
*1539 FILLER_4_297
*1540 FILLER_4_3
*1541 FILLER_4_47
*1542 FILLER_4_59
*1543 FILLER_4_71
*1544 FILLER_4_83
*1545 FILLER_4_85
*1546 FILLER_4_97
*1547 FILLER_50_109
*1548 FILLER_50_121
*1549 FILLER_50_133
*1550 FILLER_50_139
*1551 FILLER_50_141
*1552 FILLER_50_15
*1553 FILLER_50_153
*1554 FILLER_50_165
*1555 FILLER_50_177
*1556 FILLER_50_189
*1557 FILLER_50_195
*1558 FILLER_50_197
*1559 FILLER_50_209
*1560 FILLER_50_221
*1561 FILLER_50_233
*1562 FILLER_50_245
*1563 FILLER_50_251
*1564 FILLER_50_253
*1565 FILLER_50_265
*1566 FILLER_50_27
*1567 FILLER_50_277
*1568 FILLER_50_289
*1569 FILLER_50_29
*1570 FILLER_50_297
*1571 FILLER_50_3
*1572 FILLER_50_41
*1573 FILLER_50_53
*1574 FILLER_50_65
*1575 FILLER_50_77
*1576 FILLER_50_83
*1577 FILLER_50_85
*1578 FILLER_50_97
*1579 FILLER_51_105
*1580 FILLER_51_111
*1581 FILLER_51_113
*1582 FILLER_51_125
*1583 FILLER_51_137
*1584 FILLER_51_149
*1585 FILLER_51_15
*1586 FILLER_51_161
*1587 FILLER_51_167
*1588 FILLER_51_169
*1589 FILLER_51_181
*1590 FILLER_51_193
*1591 FILLER_51_205
*1592 FILLER_51_217
*1593 FILLER_51_223
*1594 FILLER_51_225
*1595 FILLER_51_237
*1596 FILLER_51_249
*1597 FILLER_51_261
*1598 FILLER_51_27
*1599 FILLER_51_273
*1600 FILLER_51_279
*1601 FILLER_51_281
*1602 FILLER_51_293
*1603 FILLER_51_3
*1604 FILLER_51_39
*1605 FILLER_51_51
*1606 FILLER_51_55
*1607 FILLER_51_57