*SPEF "ieee 1481-1999"
*DESIGN "shadow1229_player"
*DATE "11:11:11 Fri 11 11, 1111"
*VENDOR "OpenRCX"
*PROGRAM "Parallel Extraction"
*VERSION "1.0"
*DESIGN_FLOW "NAME_SCOPE LOCAL" "PIN_CAP NONE"
*DIVIDER /
*DELIMITER :
*BUS_DELIMITER []
*T_UNIT 1 NS
*C_UNIT 1 PF
*R_UNIT 1 OHM
*L_UNIT 1 HENRY

*NAME_MAP
*1 io_in[0]
*2 io_in[1]
*3 io_in[2]
*4 io_in[3]
*5 io_in[4]
*6 io_in[5]
*7 io_in[6]
*8 io_in[7]
*9 io_out[0]
*10 io_out[1]
*11 net2
*12 net3
*13 net4
*14 net5
*15 net6
*16 net7
*19 _0000_
*20 _0001_
*21 _0002_
*22 _0003_
*23 _0004_
*24 _0005_
*25 _0006_
*26 _0007_
*27 _0008_
*28 _0009_
*29 _0010_
*30 _0011_
*31 _0012_
*32 _0013_
*33 _0014_
*34 _0015_
*35 _0016_
*36 _0017_
*37 _0018_
*38 _0019_
*39 _0020_
*40 _0021_
*41 _0022_
*42 _0023_
*43 _0024_
*44 _0025_
*45 _0026_
*46 _0027_
*47 _0028_
*48 _0029_
*49 _0030_
*50 _0031_
*51 _0032_
*52 _0033_
*53 _0034_
*54 _0035_
*55 _0036_
*56 _0037_
*57 _0038_
*58 _0039_
*59 _0040_
*60 _0041_
*61 _0042_
*62 _0043_
*63 _0044_
*64 _0045_
*65 _0046_
*66 _0047_
*67 _0048_
*68 _0049_
*69 _0050_
*70 _0051_
*71 _0052_
*72 _0053_
*73 _0054_
*74 _0055_
*75 _0056_
*76 _0057_
*77 _0058_
*78 _0059_
*79 _0060_
*80 _0061_
*81 _0062_
*82 _0063_
*83 _0064_
*84 _0065_
*85 _0066_
*86 _0067_
*87 _0068_
*88 _0069_
*89 _0070_
*90 _0071_
*91 _0072_
*92 _0073_
*93 _0074_
*94 _0075_
*95 _0076_
*96 _0077_
*97 _0078_
*98 _0079_
*99 _0080_
*100 _0081_
*101 _0082_
*102 _0083_
*103 _0084_
*104 _0085_
*105 _0086_
*106 _0087_
*107 _0088_
*108 _0089_
*109 _0090_
*110 _0091_
*111 _0092_
*112 _0093_
*113 _0094_
*114 _0095_
*115 _0096_
*116 _0097_
*117 _0098_
*118 _0099_
*119 _0100_
*120 _0101_
*121 _0102_
*122 _0103_
*123 _0104_
*124 _0105_
*125 _0106_
*126 _0107_
*127 _0108_
*128 _0109_
*129 _0110_
*130 _0111_
*131 _0112_
*132 _0113_
*133 _0114_
*134 _0115_
*135 _0116_
*136 _0117_
*137 _0118_
*138 _0119_
*139 _0120_
*140 _0121_
*141 _0122_
*142 _0123_
*143 _0124_
*144 _0125_
*145 _0126_
*146 _0127_
*147 _0128_
*148 _0129_
*149 _0130_
*150 _0131_
*151 _0132_
*152 _0133_
*153 _0134_
*154 _0135_
*155 _0136_
*156 _0137_
*157 _0138_
*158 _0139_
*159 _0140_
*160 _0141_
*161 _0142_
*162 _0143_
*163 _0144_
*164 _0145_
*165 _0146_
*166 _0147_
*167 _0148_
*168 _0149_
*169 _0150_
*170 _0151_
*171 _0152_
*172 _0153_
*173 _0154_
*174 _0155_
*175 _0156_
*176 _0157_
*177 _0158_
*178 _0159_
*179 _0160_
*180 _0161_
*181 _0162_
*182 _0163_
*183 _0164_
*184 _0165_
*185 _0166_
*186 _0167_
*187 _0168_
*188 _0169_
*189 _0170_
*190 _0171_
*191 _0172_
*192 _0173_
*193 _0174_
*194 _0175_
*195 _0176_
*196 _0177_
*197 _0178_
*198 _0179_
*199 _0180_
*200 _0181_
*201 _0182_
*202 _0183_
*203 _0184_
*204 _0185_
*205 _0186_
*206 _0187_
*207 _0188_
*208 _0189_
*209 _0190_
*210 _0191_
*211 _0192_
*212 _0193_
*213 _0194_
*214 _0195_
*215 _0196_
*216 _0197_
*217 _0198_
*218 _0199_
*219 _0200_
*220 _0201_
*221 _0202_
*222 _0203_
*223 _0204_
*224 _0205_
*225 _0206_
*226 _0207_
*227 _0208_
*228 _0209_
*229 _0210_
*230 _0211_
*231 _0212_
*232 _0213_
*233 _0214_
*234 _0215_
*235 _0216_
*236 _0217_
*237 _0218_
*238 _0219_
*239 _0220_
*240 _0221_
*241 _0222_
*242 _0223_
*243 _0224_
*244 _0225_
*245 _0226_
*246 _0227_
*247 _0228_
*248 _0229_
*249 _0230_
*250 _0231_
*251 _0232_
*252 _0233_
*253 _0234_
*254 _0235_
*255 _0236_
*256 _0237_
*257 _0238_
*258 _0239_
*259 _0240_
*260 _0241_
*261 _0242_
*262 _0243_
*263 _0244_
*264 _0245_
*265 _0246_
*266 _0247_
*267 _0248_
*268 _0249_
*269 _0250_
*270 _0251_
*271 _0252_
*272 _0253_
*273 _0254_
*274 _0255_
*275 _0256_
*276 _0257_
*277 _0258_
*278 _0259_
*279 _0260_
*280 _0261_
*281 _0262_
*282 _0263_
*283 _0264_
*284 _0265_
*285 _0266_
*286 _0267_
*287 _0268_
*288 _0269_
*289 _0270_
*290 _0271_
*291 _0272_
*292 _0273_
*293 _0274_
*294 _0275_
*295 _0276_
*296 _0277_
*297 _0278_
*298 _0279_
*299 _0280_
*300 _0281_
*301 _0282_
*302 _0283_
*303 _0284_
*304 _0285_
*305 _0286_
*306 _0287_
*307 _0288_
*308 _0289_
*309 _0290_
*310 _0291_
*311 _0292_
*312 _0293_
*313 _0294_
*314 _0295_
*315 _0296_
*316 _0297_
*317 _0298_
*318 _0299_
*319 _0300_
*320 _0301_
*321 _0302_
*322 _0303_
*323 _0304_
*324 _0305_
*325 _0306_
*326 _0307_
*327 _0308_
*328 _0309_
*329 _0310_
*330 _0311_
*331 _0312_
*332 _0313_
*333 _0314_
*334 _0315_
*335 _0316_
*336 _0317_
*337 _0318_
*338 _0319_
*339 _0320_
*340 _0321_
*341 _0322_
*342 _0323_
*343 _0324_
*344 _0325_
*345 _0326_
*346 _0327_
*347 _0328_
*348 _0329_
*349 _0330_
*350 _0331_
*351 _0332_
*352 _0333_
*353 _0334_
*354 _0335_
*355 _0336_
*356 _0337_
*357 _0338_
*358 _0339_
*359 _0340_
*360 _0341_
*361 _0342_
*362 _0343_
*363 _0344_
*364 _0345_
*365 _0346_
*366 _0347_
*367 _0348_
*368 _0349_
*369 _0350_
*370 _0351_
*371 _0352_
*372 _0353_
*373 _0354_
*374 _0355_
*375 _0356_
*376 _0357_
*377 _0358_
*378 _0359_
*379 _0360_
*380 _0361_
*381 _0362_
*382 _0363_
*383 _0364_
*384 _0365_
*385 _0366_
*386 _0367_
*387 _0368_
*388 _0369_
*389 _0370_
*390 _0371_
*391 _0372_
*392 _0373_
*393 _0374_
*394 _0375_
*395 _0376_
*396 _0377_
*397 _0378_
*398 _0379_
*399 _0380_
*400 _0381_
*401 _0382_
*402 _0383_
*403 _0384_
*404 _0385_
*405 _0386_
*406 _0387_
*407 _0388_
*408 _0389_
*409 _0390_
*410 _0391_
*411 _0392_
*412 _0393_
*413 _0394_
*414 _0395_
*415 _0396_
*416 _0397_
*417 _0398_
*418 _0399_
*419 _0400_
*420 _0401_
*421 _0402_
*422 _0403_
*423 _0404_
*424 _0405_
*425 _0406_
*426 _0407_
*427 _0408_
*428 _0409_
*429 _0410_
*430 _0411_
*431 _0412_
*432 _0413_
*433 _0414_
*434 _0415_
*435 _0416_
*436 _0417_
*437 _0418_
*438 _0419_
*439 _0420_
*440 _0421_
*441 _0422_
*442 _0423_
*443 _0424_
*444 _0425_
*445 _0426_
*446 _0427_
*447 _0428_
*448 _0429_
*449 _0430_
*450 _0431_
*451 _0432_
*452 _0433_
*453 _0434_
*454 _0435_
*455 _0436_
*456 _0437_
*457 _0438_
*458 _0439_
*459 _0440_
*460 _0441_
*461 _0442_
*462 _0443_
*463 _0444_
*464 _0445_
*465 _0446_
*466 _0447_
*467 _0448_
*468 _0449_
*469 _0450_
*470 _0451_
*471 _0452_
*472 _0453_
*473 _0454_
*474 _0455_
*475 _0456_
*476 _0457_
*477 _0458_
*478 _0459_
*479 _0460_
*480 _0461_
*481 _0462_
*482 _0463_
*483 _0464_
*484 _0465_
*485 _0466_
*486 _0467_
*487 _0468_
*488 _0469_
*489 _0470_
*490 _0471_
*491 _0472_
*492 _0473_
*493 _0474_
*494 _0475_
*495 _0476_
*496 _0477_
*497 _0478_
*498 _0479_
*499 _0480_
*500 _0481_
*501 _0482_
*502 _0483_
*503 _0484_
*504 _0485_
*505 _0486_
*506 _0487_
*507 _0488_
*508 _0489_
*509 _0490_
*510 _0491_
*511 _0492_
*512 _0493_
*513 _0494_
*514 _0495_
*515 _0496_
*516 _0497_
*517 _0498_
*518 _0499_
*519 _0500_
*520 _0501_
*521 _0502_
*522 _0503_
*523 _0504_
*524 _0505_
*525 _0506_
*526 _0507_
*527 _0508_
*528 _0509_
*529 _0510_
*530 _0511_
*531 _0512_
*532 _0513_
*533 _0514_
*534 _0515_
*535 _0516_
*536 _0517_
*537 _0518_
*538 _0519_
*539 _0520_
*540 _0521_
*541 _0522_
*542 _0523_
*543 _0524_
*544 _0525_
*545 _0526_
*546 _0527_
*547 _0528_
*548 _0529_
*549 _0530_
*550 _0531_
*551 _0532_
*552 _0533_
*553 _0534_
*554 _0535_
*555 _0536_
*556 _0537_
*557 _0538_
*558 _0539_
*559 _0540_
*560 _0541_
*561 _0542_
*562 _0543_
*563 _0544_
*564 _0545_
*565 _0546_
*566 _0547_
*567 _0548_
*568 _0549_
*569 _0550_
*570 _0551_
*571 _0552_
*572 _0553_
*573 _0554_
*574 _0555_
*575 _0556_
*576 _0557_
*577 _0558_
*578 _0559_
*579 _0560_
*580 _0561_
*581 _0562_
*582 _0563_
*583 _0564_
*584 _0565_
*585 _0566_
*586 _0567_
*587 _0568_
*588 _0569_
*589 _0570_
*590 _0571_
*591 _0572_
*592 _0573_
*593 _0574_
*594 _0575_
*595 _0576_
*596 _0577_
*597 _0578_
*598 _0579_
*599 _0580_
*600 _0581_
*601 _0582_
*602 _0583_
*603 _0584_
*604 _0585_
*605 _0586_
*606 _0587_
*607 _0588_
*608 _0589_
*609 _0590_
*610 _0591_
*611 _0592_
*612 _0593_
*613 _0594_
*614 _0595_
*615 _0596_
*616 _0597_
*617 _0598_
*618 _0599_
*619 _0600_
*620 _0601_
*621 _0602_
*622 _0603_
*623 _0604_
*624 _0605_
*625 _0606_
*626 _0607_
*627 _0608_
*628 _0609_
*629 _0610_
*630 _0611_
*631 _0612_
*632 _0613_
*633 _0614_
*634 _0615_
*635 _0616_
*636 _0617_
*637 _0618_
*638 _0619_
*639 _0620_
*640 _0621_
*641 _0622_
*642 _0623_
*643 _0624_
*644 _0625_
*645 _0626_
*646 _0627_
*647 _0628_
*648 _0629_
*649 _0630_
*650 _0631_
*651 _0632_
*652 _0633_
*653 _0634_
*654 _0635_
*655 _0636_
*656 _0637_
*657 _0638_
*658 _0639_
*659 _0640_
*660 _0641_
*661 _0642_
*662 _0643_
*663 _0644_
*664 _0645_
*665 _0646_
*666 _0647_
*667 _0648_
*668 _0649_
*669 _0650_
*670 _0651_
*671 _0652_
*672 _0653_
*673 _0654_
*674 _0655_
*675 _0656_
*676 _0657_
*677 _0658_
*678 _0659_
*679 _0660_
*680 clknet_0_io_in[0]
*681 clknet_4_0_0_io_in[0]
*682 clknet_4_10_0_io_in[0]
*683 clknet_4_11_0_io_in[0]
*684 clknet_4_12_0_io_in[0]
*685 clknet_4_13_0_io_in[0]
*686 clknet_4_14_0_io_in[0]
*687 clknet_4_15_0_io_in[0]
*688 clknet_4_1_0_io_in[0]
*689 clknet_4_2_0_io_in[0]
*690 clknet_4_3_0_io_in[0]
*691 clknet_4_4_0_io_in[0]
*692 clknet_4_5_0_io_in[0]
*693 clknet_4_6_0_io_in[0]
*694 clknet_4_7_0_io_in[0]
*695 clknet_4_8_0_io_in[0]
*696 clknet_4_9_0_io_in[0]
*697 counter\[0\]
*698 counter\[1\]
*699 counter\[2\]
*700 counter\[3\]
*701 counter\[4\]
*702 counter\[5\]
*703 counter\[6\]
*704 counter\[7\]
*705 counter_cycle\[0\]
*706 counter_cycle\[1\]
*707 counter_note\[0\]
*708 counter_note\[1\]
*709 counter_note\[2\]
*710 freq\[0\]
*711 freq\[1\]
*712 freq\[2\]
*713 freq\[3\]
*714 freq\[4\]
*715 freq\[5\]
*716 freq\[6\]
*717 freq\[7\]
*718 freq_db\.address\[0\]
*719 freq_db\.address\[1\]
*720 freq_db\.address\[2\]
*721 freq_db\.address\[3\]
*722 freq_db\.is_highkey
*723 freq_db_2\.db_entry\[0\]
*724 freq_db_2\.db_entry\[1\]
*725 freq_db_2\.db_entry\[2\]
*726 freq_db_2\.db_entry\[3\]
*727 freq_db_2\.db_entry\[4\]
*728 freq_db_2\.db_entry\[5\]
*729 freq_db_2\.db_entry\[6\]
*730 freq_db_2\.db_entry\[7\]
*731 length_entry\[2\]
*732 length_entry\[3\]
*733 length_entry\[4\]
*734 length_entry\[5\]
*735 length_entry\[6\]
*736 length_note
*737 n_note\[0\]
*738 n_note\[1\]
*739 n_note\[2\]
*740 net1
*741 phrase\[0\]
*742 phrase\[10\]
*743 phrase\[11\]
*744 phrase\[12\]
*745 phrase\[13\]
*746 phrase\[14\]
*747 phrase\[15\]
*748 phrase\[16\]
*749 phrase\[17\]
*750 phrase\[18\]
*751 phrase\[19\]
*752 phrase\[1\]
*753 phrase\[20\]
*754 phrase\[21\]
*755 phrase\[22\]
*756 phrase\[23\]
*757 phrase\[24\]
*758 phrase\[25\]
*759 phrase\[26\]
*760 phrase\[27\]
*761 phrase\[3\]
*762 phrase\[4\]
*763 phrase\[5\]
*764 phrase\[6\]
*765 phrase\[7\]
*766 phrase\[8\]
*767 phrase\[9\]
*768 phrase_db\.address\[0\]
*769 phrase_db\.address\[1\]
*770 phrase_db\.address\[2\]
*771 phrase_db\.address\[3\]
*772 phrase_db\.db_entry\[0\]
*773 phrase_db\.db_entry\[10\]
*774 phrase_db\.db_entry\[11\]
*775 phrase_db\.db_entry\[12\]
*776 phrase_db\.db_entry\[13\]
*777 phrase_db\.db_entry\[15\]
*778 phrase_db\.db_entry\[16\]
*779 phrase_db\.db_entry\[17\]
*780 phrase_db\.db_entry\[18\]
*781 phrase_db\.db_entry\[19\]
*782 phrase_db\.db_entry\[21\]
*783 phrase_db\.db_entry\[22\]
*784 phrase_db\.db_entry\[23\]
*785 phrase_db\.db_entry\[24\]
*786 phrase_db\.db_entry\[25\]
*787 phrase_db\.db_entry\[26\]
*788 phrase_db\.db_entry\[27\]
*789 phrase_db\.db_entry\[28\]
*790 phrase_db\.db_entry\[29\]
*791 phrase_db\.db_entry\[30\]
*792 phrase_db\.db_entry\[31\]
*793 phrase_db\.db_entry\[3\]
*794 phrase_db\.db_entry\[4\]
*795 phrase_db\.db_entry\[5\]
*796 phrase_db\.db_entry\[6\]
*797 phrase_db\.db_entry\[7\]
*798 phrase_db\.db_entry\[8\]
*799 phrase_db\.db_entry\[9\]
*800 phrase_db\.length_entry\[2\]
*801 phrase_db\.length_entry\[3\]
*802 phrase_db\.length_entry\[4\]
*803 phrase_db\.length_entry\[6\]
*804 phrase_db\.n_note\[0\]
*805 phrase_db\.n_note\[1\]
*806 phrase_db\.n_note\[2\]
*807 phrase_id_db\.address\[0\]
*808 phrase_id_db\.address\[1\]
*809 phrase_id_db\.address\[2\]
*810 phrase_id_db\.address\[3\]
*811 phrase_id_db\.address\[4\]
*812 phrase_id_db\.address\[5\]
*813 phrase_id_db\.address\[6\]
*814 phrase_id_db\.address\[7\]
*815 phrase_id_db\.db_entry\[0\]
*816 phrase_id_db\.db_entry\[1\]
*817 phrase_id_db\.db_entry\[2\]
*818 phrase_id_db\.db_entry\[3\]
*819 phrase_id_db\.db_entry\[4\]
*820 phrase_type
*821 speaker
*822 ticks\[0\]
*823 ticks\[10\]
*824 ticks\[11\]
*825 ticks\[1\]
*826 ticks\[2\]
*827 ticks\[3\]
*828 ticks\[4\]
*829 ticks\[5\]
*830 ticks\[6\]
*831 ticks\[7\]
*832 ticks\[8\]
*833 ticks\[9\]
*834 ANTENNA_1
*835 ANTENNA_10
*836 ANTENNA_11
*837 ANTENNA_12
*838 ANTENNA_13
*839 ANTENNA_14
*840 ANTENNA_15
*841 ANTENNA_16
*842 ANTENNA_17
*843 ANTENNA_18
*844 ANTENNA_19
*845 ANTENNA_2
*846 ANTENNA_20
*847 ANTENNA_21
*848 ANTENNA_22
*849 ANTENNA_23
*850 ANTENNA_24
*851 ANTENNA_25
*852 ANTENNA_26
*853 ANTENNA_27
*854 ANTENNA_28
*855 ANTENNA_29
*856 ANTENNA_3
*857 ANTENNA_30
*858 ANTENNA_31
*859 ANTENNA_32
*860 ANTENNA_33
*861 ANTENNA_34
*862 ANTENNA_4
*863 ANTENNA_5
*864 ANTENNA_6
*865 ANTENNA_7
*866 ANTENNA_8
*867 ANTENNA_9
*868 FILLER_0_108
*869 FILLER_0_113
*870 FILLER_0_130
*871 FILLER_0_138
*872 FILLER_0_141
*873 FILLER_0_150
*874 FILLER_0_154
*875 FILLER_0_166
*876 FILLER_0_169
*877 FILLER_0_181
*878 FILLER_0_193
*879 FILLER_0_197
*880 FILLER_0_209
*881 FILLER_0_21
*882 FILLER_0_221
*883 FILLER_0_225
*884 FILLER_0_232
*885 FILLER_0_245
*886 FILLER_0_25
*887 FILLER_0_251
*888 FILLER_0_253
*889 FILLER_0_260
*890 FILLER_0_267
*891 FILLER_0_278
*892 FILLER_0_281
*893 FILLER_0_286
*894 FILLER_0_29
*895 FILLER_0_295
*896 FILLER_0_3
*897 FILLER_0_43
*898 FILLER_0_52
*899 FILLER_0_57
*900 FILLER_0_61
*901 FILLER_0_66
*902 FILLER_0_75
*903 FILLER_0_83
*904 FILLER_0_85
*905 FILLER_0_98
*906 FILLER_10_116
*907 FILLER_10_123
*908 FILLER_10_138
*909 FILLER_10_141
*910 FILLER_10_146
*911 FILLER_10_168
*912 FILLER_10_176
*913 FILLER_10_186
*914 FILLER_10_193
*915 FILLER_10_197
*916 FILLER_10_204
*917 FILLER_10_21
*918 FILLER_10_213
*919 FILLER_10_222
*920 FILLER_10_233
*921 FILLER_10_246
*922 FILLER_10_25
*923 FILLER_10_253
*924 FILLER_10_258
*925 FILLER_10_270
*926 FILLER_10_276
*927 FILLER_10_289
*928 FILLER_10_29
*929 FILLER_10_297
*930 FILLER_10_3
*931 FILLER_10_47
*932 FILLER_10_58
*933 FILLER_10_82
*934 FILLER_10_85
*935 FILLER_10_93
*936 FILLER_10_99
*937 FILLER_11_104
*938 FILLER_11_11
*939 FILLER_11_113
*940 FILLER_11_131
*941 FILLER_11_144
*942 FILLER_11_148
*943 FILLER_11_165
*944 FILLER_11_169
*945 FILLER_11_17
*946 FILLER_11_177
*947 FILLER_11_183
*948 FILLER_11_192
*949 FILLER_11_196
*950 FILLER_11_201
*951 FILLER_11_211
*952 FILLER_11_223
*953 FILLER_11_225
*954 FILLER_11_230
*955 FILLER_11_237
*956 FILLER_11_258
*957 FILLER_11_266
*958 FILLER_11_275
*959 FILLER_11_279
*960 FILLER_11_281
*961 FILLER_11_293
*962 FILLER_11_3
*963 FILLER_11_37
*964 FILLER_11_44
*965 FILLER_11_54
*966 FILLER_11_57
*967 FILLER_11_61
*968 FILLER_11_78
*969 FILLER_11_86
*970 FILLER_12_115
*971 FILLER_12_13
*972 FILLER_12_135
*973 FILLER_12_139
*974 FILLER_12_141
*975 FILLER_12_151
*976 FILLER_12_172
*977 FILLER_12_176
*978 FILLER_12_181
*979 FILLER_12_19
*980 FILLER_12_190
*981 FILLER_12_197
*982 FILLER_12_203
*983 FILLER_12_211
*984 FILLER_12_219
*985 FILLER_12_228
*986 FILLER_12_232
*987 FILLER_12_243
*988 FILLER_12_251
*989 FILLER_12_253
*990 FILLER_12_26
*991 FILLER_12_265
*992 FILLER_12_277
*993 FILLER_12_284
*994 FILLER_12_29
*995 FILLER_12_295
*996 FILLER_12_3
*997 FILLER_12_39
*998 FILLER_12_61
*999 FILLER_12_65
*1000 FILLER_12_77
*1001 FILLER_12_83
*1002 FILLER_12_85
*1003 FILLER_12_95
*1004 FILLER_13_110
*1005 FILLER_13_113
*1006 FILLER_13_126
*1007 FILLER_13_13
*1008 FILLER_13_138
*1009 FILLER_13_144
*1010 FILLER_13_161
*1011 FILLER_13_167
*1012 FILLER_13_169
*1013 FILLER_13_181
*1014 FILLER_13_19
*1015 FILLER_13_193
*1016 FILLER_13_201
*1017 FILLER_13_205
*1018 FILLER_13_213
*1019 FILLER_13_222
*1020 FILLER_13_225
*1021 FILLER_13_236
*1022 FILLER_13_246
*1023 FILLER_13_253
*1024 FILLER_13_263
*1025 FILLER_13_270
*1026 FILLER_13_278
*1027 FILLER_13_281
*1028 FILLER_13_289
*1029 FILLER_13_297
*1030 FILLER_13_3
*1031 FILLER_13_36
*1032 FILLER_13_51
*1033 FILLER_13_55
*1034 FILLER_13_57
*1035 FILLER_13_68
*1036 FILLER_13_90
*1037 FILLER_14_103
*1038 FILLER_14_111
*1039 FILLER_14_12
*1040 FILLER_14_129
*1041 FILLER_14_133
*1042 FILLER_14_138
*1043 FILLER_14_141
*1044 FILLER_14_147
*1045 FILLER_14_169
*1046 FILLER_14_181
*1047 FILLER_14_194
*1048 FILLER_14_197
*1049 FILLER_14_20
*1050 FILLER_14_208
*1051 FILLER_14_220
*1052 FILLER_14_228
*1053 FILLER_14_235
*1054 FILLER_14_243
*1055 FILLER_14_251
*1056 FILLER_14_253
*1057 FILLER_14_26
*1058 FILLER_14_265
*1059 FILLER_14_277
*1060 FILLER_14_285
*1061 FILLER_14_29
*1062 FILLER_14_291
*1063 FILLER_14_297
*1064 FILLER_14_3
*1065 FILLER_14_49
*1066 FILLER_14_69
*1067 FILLER_14_81
*1068 FILLER_14_85
*1069 FILLER_15_10
*1070 FILLER_15_108
*1071 FILLER_15_113
*1072 FILLER_15_121
*1073 FILLER_15_132
*1074 FILLER_15_147
*1075 FILLER_15_155
*1076 FILLER_15_166
*1077 FILLER_15_169
*1078 FILLER_15_181
*1079 FILLER_15_185
*1080 FILLER_15_191
*1081 FILLER_15_203
*1082 FILLER_15_211
*1083 FILLER_15_223
*1084 FILLER_15_225
*1085 FILLER_15_233
*1086 FILLER_15_242
*1087 FILLER_15_251
*1088 FILLER_15_263
*1089 FILLER_15_275
*1090 FILLER_15_279
*1091 FILLER_15_281
*1092 FILLER_15_289
*1093 FILLER_15_297
*1094 FILLER_15_3
*1095 FILLER_15_30
*1096 FILLER_15_43
*1097 FILLER_15_54
*1098 FILLER_15_57
*1099 FILLER_15_66
*1100 FILLER_15_86
*1101 FILLER_15_90
*1102 FILLER_16_115
*1103 FILLER_16_135
*1104 FILLER_16_139
*1105 FILLER_16_141
*1106 FILLER_16_159
*1107 FILLER_16_179
*1108 FILLER_16_190
*1109 FILLER_16_197
*1110 FILLER_16_203
*1111 FILLER_16_21
*1112 FILLER_16_211
*1113 FILLER_16_217
*1114 FILLER_16_229
*1115 FILLER_16_238
*1116 FILLER_16_250
*1117 FILLER_16_253
*1118 FILLER_16_265
*1119 FILLER_16_27
*1120 FILLER_16_273
*1121 FILLER_16_279
*1122 FILLER_16_29
*1123 FILLER_16_297
*1124 FILLER_16_3
*1125 FILLER_16_47
*1126 FILLER_16_72
*1127 FILLER_16_76
*1128 FILLER_16_80
*1129 FILLER_16_85
*1130 FILLER_16_93
*1131 FILLER_16_97
*1132 FILLER_17_107
*1133 FILLER_17_11
*1134 FILLER_17_111
*1135 FILLER_17_113
*1136 FILLER_17_131
*1137 FILLER_17_146
*1138 FILLER_17_166
*1139 FILLER_17_169
*1140 FILLER_17_181
*1141 FILLER_17_190
*1142 FILLER_17_197
*1143 FILLER_17_204
*1144 FILLER_17_216
*1145 FILLER_17_225
*1146 FILLER_17_237
*1147 FILLER_17_248
*1148 FILLER_17_261
*1149 FILLER_17_273
*1150 FILLER_17_279
*1151 FILLER_17_281
*1152 FILLER_17_289
*1153 FILLER_17_297
*1154 FILLER_17_3
*1155 FILLER_17_33
*1156 FILLER_17_37
*1157 FILLER_17_54
*1158 FILLER_17_57
*1159 FILLER_17_62
*1160 FILLER_17_86
*1161 FILLER_17_90
*1162 FILLER_18_108
*1163 FILLER_18_115
*1164 FILLER_18_135
*1165 FILLER_18_139
*1166 FILLER_18_141
*1167 FILLER_18_153
*1168 FILLER_18_172
*1169 FILLER_18_181
*1170 FILLER_18_189
*1171 FILLER_18_195
*1172 FILLER_18_197
*1173 FILLER_18_204
*1174 FILLER_18_218
*1175 FILLER_18_230
*1176 FILLER_18_238
*1177 FILLER_18_245
*1178 FILLER_18_251
*1179 FILLER_18_253
*1180 FILLER_18_26
*1181 FILLER_18_265
*1182 FILLER_18_277
*1183 FILLER_18_289
*1184 FILLER_18_29
*1185 FILLER_18_297
*1186 FILLER_18_3
*1187 FILLER_18_33
*1188 FILLER_18_42
*1189 FILLER_18_62
*1190 FILLER_18_8
*1191 FILLER_18_82
*1192 FILLER_18_85
*1193 FILLER_19_101
*1194 FILLER_19_109
*1195 FILLER_19_113
*1196 FILLER_19_126
*1197 FILLER_19_144
*1198 FILLER_19_148
*1199 FILLER_19_16
*1200 FILLER_19_166
*1201 FILLER_19_169
*1202 FILLER_19_180
*1203 FILLER_19_191
*1204 FILLER_19_201
*1205 FILLER_19_209
*1206 FILLER_19_214
*1207 FILLER_19_221
*1208 FILLER_19_225
*1209 FILLER_19_234
*1210 FILLER_19_242
*1211 FILLER_19_251
*1212 FILLER_19_26
*1213 FILLER_19_263
*1214 FILLER_19_271
*1215 FILLER_19_277
*1216 FILLER_19_281
*1217 FILLER_19_290
*1218 FILLER_19_298
*1219 FILLER_19_3
*1220 FILLER_19_54
*1221 FILLER_19_57
*1222 FILLER_19_79
*1223 FILLER_1_110
*1224 FILLER_1_113
*1225 FILLER_1_124
*1226 FILLER_1_128
*1227 FILLER_1_146
*1228 FILLER_1_166
*1229 FILLER_1_169
*1230 FILLER_1_17
*1231 FILLER_1_181
*1232 FILLER_1_190
*1233 FILLER_1_198
*1234 FILLER_1_206
*1235 FILLER_1_215
*1236 FILLER_1_222
*1237 FILLER_1_225
*1238 FILLER_1_23
*1239 FILLER_1_249
*1240 FILLER_1_258
*1241 FILLER_1_262
*1242 FILLER_1_266
*1243 FILLER_1_272
*1244 FILLER_1_278
*1245 FILLER_1_281
*1246 FILLER_1_288
*1247 FILLER_1_297
*1248 FILLER_1_3
*1249 FILLER_1_40
*1250 FILLER_1_54
*1251 FILLER_1_57
*1252 FILLER_1_76
*1253 FILLER_1_80
*1254 FILLER_1_88
*1255 FILLER_1_92
*1256 FILLER_20_118
*1257 FILLER_20_138
*1258 FILLER_20_141
*1259 FILLER_20_169
*1260 FILLER_20_177
*1261 FILLER_20_186
*1262 FILLER_20_193
*1263 FILLER_20_197
*1264 FILLER_20_202
*1265 FILLER_20_215
*1266 FILLER_20_227
*1267 FILLER_20_235
*1268 FILLER_20_246
*1269 FILLER_20_253
*1270 FILLER_20_26
*1271 FILLER_20_261
*1272 FILLER_20_272
*1273 FILLER_20_29
*1274 FILLER_20_297
*1275 FILLER_20_3
*1276 FILLER_20_37
*1277 FILLER_20_55
*1278 FILLER_20_63
*1279 FILLER_20_82
*1280 FILLER_20_85
*1281 FILLER_20_89
*1282 FILLER_20_9
*1283 FILLER_20_98
*1284 FILLER_21_108
*1285 FILLER_21_113
*1286 FILLER_21_132
*1287 FILLER_21_138
*1288 FILLER_21_155
*1289 FILLER_21_167
*1290 FILLER_21_169
*1291 FILLER_21_182
*1292 FILLER_21_190
*1293 FILLER_21_202
*1294 FILLER_21_21
*1295 FILLER_21_213
*1296 FILLER_21_222
*1297 FILLER_21_225
*1298 FILLER_21_231
*1299 FILLER_21_239
*1300 FILLER_21_251
*1301 FILLER_21_255
*1302 FILLER_21_265
*1303 FILLER_21_277
*1304 FILLER_21_28
*1305 FILLER_21_281
*1306 FILLER_21_293
*1307 FILLER_21_3
*1308 FILLER_21_50
*1309 FILLER_21_57
*1310 FILLER_21_69
*1311 FILLER_21_87
*1312 FILLER_21_91
*1313 FILLER_22_108
*1314 FILLER_22_115
*1315 FILLER_22_137
*1316 FILLER_22_141
*1317 FILLER_22_147
*1318 FILLER_22_164
*1319 FILLER_22_172
*1320 FILLER_22_180
*1321 FILLER_22_184
*1322 FILLER_22_194
*1323 FILLER_22_197
*1324 FILLER_22_207
*1325 FILLER_22_216
*1326 FILLER_22_225
*1327 FILLER_22_24
*1328 FILLER_22_240
*1329 FILLER_22_253
*1330 FILLER_22_265
*1331 FILLER_22_276
*1332 FILLER_22_287
*1333 FILLER_22_29
*1334 FILLER_22_3
*1335 FILLER_22_38
*1336 FILLER_22_44
*1337 FILLER_22_64
*1338 FILLER_22_79
*1339 FILLER_22_83
*1340 FILLER_22_85
*1341 FILLER_22_91
*1342 FILLER_23_110
*1343 FILLER_23_113
*1344 FILLER_23_132
*1345 FILLER_23_152
*1346 FILLER_23_164
*1347 FILLER_23_169
*1348 FILLER_23_179
*1349 FILLER_23_190
*1350 FILLER_23_200
*1351 FILLER_23_207
*1352 FILLER_23_21
*1353 FILLER_23_219
*1354 FILLER_23_223
*1355 FILLER_23_225
*1356 FILLER_23_234
*1357 FILLER_23_240
*1358 FILLER_23_248
*1359 FILLER_23_263
*1360 FILLER_23_275
*1361 FILLER_23_279
*1362 FILLER_23_281
*1363 FILLER_23_292
*1364 FILLER_23_298
*1365 FILLER_23_3
*1366 FILLER_23_33
*1367 FILLER_23_54
*1368 FILLER_23_57
*1369 FILLER_23_70
*1370 FILLER_23_88
*1371 FILLER_23_92
*1372 FILLER_24_116
*1373 FILLER_24_124
*1374 FILLER_24_138
*1375 FILLER_24_141
*1376 FILLER_24_145
*1377 FILLER_24_162
*1378 FILLER_24_170
*1379 FILLER_24_179
*1380 FILLER_24_186
*1381 FILLER_24_194
*1382 FILLER_24_197
*1383 FILLER_24_203
*1384 FILLER_24_21
*1385 FILLER_24_212
*1386 FILLER_24_216
*1387 FILLER_24_224
*1388 FILLER_24_231
*1389 FILLER_24_240
*1390 FILLER_24_250
*1391 FILLER_24_253
*1392 FILLER_24_265
*1393 FILLER_24_27
*1394 FILLER_24_278
*1395 FILLER_24_29
*1396 FILLER_24_290
*1397 FILLER_24_298
*1398 FILLER_24_3
*1399 FILLER_24_50
*1400 FILLER_24_70
*1401 FILLER_24_82
*1402 FILLER_24_85
*1403 FILLER_24_96
*1404 FILLER_25_110
*1405 FILLER_25_113
*1406 FILLER_25_131
*1407 FILLER_25_14
*1408 FILLER_25_143
*1409 FILLER_25_163
*1410 FILLER_25_167
*1411 FILLER_25_169
*1412 FILLER_25_178
*1413 FILLER_25_182
*1414 FILLER_25_191
*1415 FILLER_25_200
*1416 FILLER_25_214
*1417 FILLER_25_221
*1418 FILLER_25_225
*1419 FILLER_25_238
*1420 FILLER_25_251
*1421 FILLER_25_266
*1422 FILLER_25_277
*1423 FILLER_25_281
*1424 FILLER_25_293
*1425 FILLER_25_3
*1426 FILLER_25_32
*1427 FILLER_25_36
*1428 FILLER_25_54
*1429 FILLER_25_57
*1430 FILLER_25_66
*1431 FILLER_25_7
*1432 FILLER_25_90
*1433 FILLER_26_118
*1434 FILLER_26_138
*1435 FILLER_26_141
*1436 FILLER_26_162
*1437 FILLER_26_168
*1438 FILLER_26_178
*1439 FILLER_26_182
*1440 FILLER_26_191
*1441 FILLER_26_195
*1442 FILLER_26_197
*1443 FILLER_26_203
*1444 FILLER_26_207
*1445 FILLER_26_222
*1446 FILLER_26_233
*1447 FILLER_26_242
*1448 FILLER_26_250
*1449 FILLER_26_253
*1450 FILLER_26_26
*1451 FILLER_26_260
*1452 FILLER_26_272
*1453 FILLER_26_284
*1454 FILLER_26_29
*1455 FILLER_26_296
*1456 FILLER_26_3
*1457 FILLER_26_35
*1458 FILLER_26_53
*1459 FILLER_26_57
*1460 FILLER_26_60
*1461 FILLER_26_78
*1462 FILLER_26_85
*1463 FILLER_26_89
*1464 FILLER_26_9
*1465 FILLER_26_98
*1466 FILLER_27_108
*1467 FILLER_27_113
*1468 FILLER_27_118
*1469 FILLER_27_124
*1470 FILLER_27_136
*1471 FILLER_27_15
*1472 FILLER_27_164
*1473 FILLER_27_169
*1474 FILLER_27_177
*1475 FILLER_27_186
*1476 FILLER_27_192
*1477 FILLER_27_201
*1478 FILLER_27_208
*1479 FILLER_27_220
*1480 FILLER_27_225
*1481 FILLER_27_232
*1482 FILLER_27_240
*1483 FILLER_27_264
*1484 FILLER_27_276
*1485 FILLER_27_281
*1486 FILLER_27_293
*1487 FILLER_27_3
*1488 FILLER_27_39
*1489 FILLER_27_54
*1490 FILLER_27_57
*1491 FILLER_27_70
*1492 FILLER_27_91
*1493 FILLER_28_112
*1494 FILLER_28_124
*1495 FILLER_28_136
*1496 FILLER_28_141
*1497 FILLER_28_159
*1498 FILLER_28_171
*1499 FILLER_28_183
*1500 FILLER_28_193
*1501 FILLER_28_197
*1502 FILLER_28_201
*1503 FILLER_28_21
*1504 FILLER_28_211
*1505 FILLER_28_219
*1506 FILLER_28_227
*1507 FILLER_28_238
*1508 FILLER_28_250
*1509 FILLER_28_253
*1510 FILLER_28_269
*1511 FILLER_28_27
*1512 FILLER_28_277
*1513 FILLER_28_286
*1514 FILLER_28_29
*1515 FILLER_28_298
*1516 FILLER_28_3
*1517 FILLER_28_53
*1518 FILLER_28_61
*1519 FILLER_28_78
*1520 FILLER_28_85
*1521 FILLER_28_92
*1522 FILLER_29_107
*1523 FILLER_29_111
*1524 FILLER_29_113
*1525 FILLER_29_125
*1526 FILLER_29_137
*1527 FILLER_29_149
*1528 FILLER_29_15
*1529 FILLER_29_164
*1530 FILLER_29_169
*1531 FILLER_29_175
*1532 FILLER_29_183
*1533 FILLER_29_195
*1534 FILLER_29_206
*1535 FILLER_29_210
*1536 FILLER_29_215
*1537 FILLER_29_223
*1538 FILLER_29_225
*1539 FILLER_29_230
*1540 FILLER_29_242
*1541 FILLER_29_248
*1542 FILLER_29_260
*1543 FILLER_29_272
*1544 FILLER_29_281
*1545 FILLER_29_293
*1546 FILLER_29_3
*1547 FILLER_29_34
*1548 FILLER_29_54
*1549 FILLER_29_57
*1550 FILLER_29_75
*1551 FILLER_29_79
*1552 FILLER_2_116
*1553 FILLER_2_125
*1554 FILLER_2_138
*1555 FILLER_2_141
*1556 FILLER_2_161
*1557 FILLER_2_181
*1558 FILLER_2_193
*1559 FILLER_2_197
*1560 FILLER_2_209
*1561 FILLER_2_221
*1562 FILLER_2_228
*1563 FILLER_2_240
*1564 FILLER_2_247
*1565 FILLER_2_251
*1566 FILLER_2_253
*1567 FILLER_2_259
*1568 FILLER_2_26
*1569 FILLER_2_263
*1570 FILLER_2_270
*1571 FILLER_2_278
*1572 FILLER_2_287
*1573 FILLER_2_29
*1574 FILLER_2_296
*1575 FILLER_2_3
*1576 FILLER_2_35
*1577 FILLER_2_55
*1578 FILLER_2_75
*1579 FILLER_2_83
*1580 FILLER_2_85
*1581 FILLER_2_89
*1582 FILLER_2_9
*1583 FILLER_2_94
*1584 FILLER_2_98
*1585 FILLER_30_101
*1586 FILLER_30_118
*1587 FILLER_30_138
*1588 FILLER_30_141
*1589 FILLER_30_159
*1590 FILLER_30_176
*1591 FILLER_30_188
*1592 FILLER_30_197
*1593 FILLER_30_205
*1594 FILLER_30_219
*1595 FILLER_30_227
*1596 FILLER_30_23
*1597 FILLER_30_236
*1598 FILLER_30_248
*1599 FILLER_30_253
*1600 FILLER_30_263
*1601 FILLER_30_27
*1602 FILLER_30_275
*1603 FILLER_30_287
*1604 FILLER_30_29
*1605 FILLER_30_3
*1606 FILLER_30_41
*1607 FILLER_30_58
*1608 FILLER_30_64
*1609 FILLER_30_82
*1610 FILLER_30_85
*1611 FILLER_30_97
*1612 FILLER_31_110
*1613 FILLER_31_113
*1614 FILLER_31_119
*1615 FILLER_31_126
*1616 FILLER_31_146
*1617 FILLER_31_15
*1618 FILLER_31_166
*1619 FILLER_31_169
*1620 FILLER_31_186
*1621 FILLER_31_197
*1622 FILLER_31_201
*1623 FILLER_31_21
*1624 FILLER_31_210
*1625 FILLER_31_220
*1626 FILLER_31_225
*1627 FILLER_31_233
*1628 FILLER_31_248
*1629 FILLER_31_260
*1630 FILLER_31_268
*1631 FILLER_31_278
*1632 FILLER_31_281
*1633 FILLER_31_293
*1634 FILLER_31_3
*1635 FILLER_31_39
*1636 FILLER_31_51
*1637 FILLER_31_55
*1638 FILLER_31_57
*1639 FILLER_31_68
*1640 FILLER_31_72
*1641 FILLER_31_90
*1642 FILLER_32_114
*1643 FILLER_32_120
*1644 FILLER_32_138
*1645 FILLER_32_141
*1646 FILLER_32_153
*1647 FILLER_32_170
*1648 FILLER_32_185
*1649 FILLER_32_193
*1650 FILLER_32_197
*1651 FILLER_32_203
*1652 FILLER_32_209
*1653 FILLER_32_220
*1654 FILLER_32_231
*1655 FILLER_32_244
*1656 FILLER_32_253
*1657 FILLER_32_26
*1658 FILLER_32_265
*1659 FILLER_32_277
*1660 FILLER_32_289
*1661 FILLER_32_29
*1662 FILLER_32_297
*1663 FILLER_32_3
*1664 FILLER_32_49
*1665 FILLER_32_57
*1666 FILLER_32_78
*1667 FILLER_32_85
*1668 FILLER_32_93
*1669 FILLER_32_96
*1670 FILLER_33_106
*1671 FILLER_33_113
*1672 FILLER_33_120
*1673 FILLER_33_128
*1674 FILLER_33_146
*1675 FILLER_33_166
*1676 FILLER_33_169
*1677 FILLER_33_181
*1678 FILLER_33_185
*1679 FILLER_33_190
*1680 FILLER_33_202
*1681 FILLER_33_211
*1682 FILLER_33_223
*1683 FILLER_33_225
*1684 FILLER_33_237
*1685 FILLER_33_248
*1686 FILLER_33_25
*1687 FILLER_33_260
*1688 FILLER_33_273
*1689 FILLER_33_279
*1690 FILLER_33_281
*1691 FILLER_33_293
*1692 FILLER_33_3
*1693 FILLER_33_37
*1694 FILLER_33_54
*1695 FILLER_33_57
*1696 FILLER_33_78
*1697 FILLER_34_103
*1698 FILLER_34_131
*1699 FILLER_34_139
*1700 FILLER_34_141
*1701 FILLER_34_153
*1702 FILLER_34_165
*1703 FILLER_34_183
*1704 FILLER_34_187
*1705 FILLER_34_193
*1706 FILLER_34_197
*1707 FILLER_34_202
*1708 FILLER_34_208
*1709 FILLER_34_21
*1710 FILLER_34_217
*1711 FILLER_34_229
*1712 FILLER_34_237
*1713 FILLER_34_247
*1714 FILLER_34_251
*1715 FILLER_34_253
*1716 FILLER_34_265
*1717 FILLER_34_27
*1718 FILLER_34_277
*1719 FILLER_34_289
*1720 FILLER_34_29
*1721 FILLER_34_297
*1722 FILLER_34_3
*1723 FILLER_34_41
*1724 FILLER_34_49
*1725 FILLER_34_56
*1726 FILLER_34_64
*1727 FILLER_34_73
*1728 FILLER_34_80
*1729 FILLER_34_85
*1730 FILLER_35_103
*1731 FILLER_35_111
*1732 FILLER_35_113
*1733 FILLER_35_123
*1734 FILLER_35_135
*1735 FILLER_35_143
*1736 FILLER_35_15
*1737 FILLER_35_155
*1738 FILLER_35_166
*1739 FILLER_35_169
*1740 FILLER_35_177
*1741 FILLER_35_188
*1742 FILLER_35_195
*1743 FILLER_35_201
*1744 FILLER_35_211
*1745 FILLER_35_223
*1746 FILLER_35_225
*1747 FILLER_35_237
*1748 FILLER_35_247
*1749 FILLER_35_251
*1750 FILLER_35_257
*1751 FILLER_35_269
*1752 FILLER_35_27
*1753 FILLER_35_277
*1754 FILLER_35_281
*1755 FILLER_35_293
*1756 FILLER_35_3
*1757 FILLER_35_33
*1758 FILLER_35_47
*1759 FILLER_35_54
*1760 FILLER_35_57
*1761 FILLER_35_69
*1762 FILLER_35_82
*1763 FILLER_35_88
*1764 FILLER_35_96