*SPEF "ieee 1481-1999"
*DESIGN "shan1293_2bitalu"
*DATE "11:11:11 Fri 11 11, 1111"
*VENDOR "OpenRCX"
*PROGRAM "Parallel Extraction"
*VERSION "1.0"
*DESIGN_FLOW "NAME_SCOPE LOCAL" "PIN_CAP NONE"
*DIVIDER /
*DELIMITER :
*BUS_DELIMITER []
*T_UNIT 1 NS
*C_UNIT 1 PF
*R_UNIT 1 OHM
*L_UNIT 1 HENRY

*NAME_MAP
*1 io_in[0]
*2 io_in[1]
*3 io_in[2]
*4 io_in[3]
*5 io_in[4]
*6 io_in[5]
*7 io_in[6]
*8 io_in[7]
*9 io_out[0]
*10 io_out[1]
*11 io_out[2]
*12 io_out[3]
*13 io_out[4]
*14 io_out[5]
*15 io_out[6]
*16 io_out[7]
*19 _000_
*20 _001_
*21 _002_
*22 _003_
*23 _004_
*24 _005_
*25 _006_
*26 _007_
*27 _008_
*28 _009_
*29 _010_
*30 _011_
*31 _012_
*32 _013_
*33 _014_
*34 _015_
*35 _016_
*36 _017_
*37 _018_
*38 _020_
*39 _021_
*40 _022_
*41 _023_
*42 _024_
*43 _025_
*44 _026_
*45 _027_
*46 _028_
*47 _029_
*48 _030_
*49 _031_
*50 _032_
*51 _033_
*52 _034_
*53 _035_
*54 _036_
*55 _037_
*56 _038_
*57 _039_
*58 _040_
*59 _041_
*60 _042_
*61 _043_
*62 _044_
*63 _045_
*64 _046_
*65 _047_
*66 _048_
*67 _049_
*68 _050_
*69 _051_
*70 _052_
*71 _053_
*72 _054_
*73 _055_
*74 _056_
*75 _057_
*76 _058_
*77 _059_
*78 _060_
*79 _061_
*80 _062_
*81 _063_
*82 _064_
*83 _065_
*84 _066_
*85 _067_
*86 _068_
*87 _069_
*88 _070_
*89 _071_
*90 _072_
*91 _073_
*92 _074_
*93 _075_
*94 _076_
*95 clknet_0__007_
*96 clknet_0__008_
*97 clknet_0__010_
*98 clknet_0__012_
*99 clknet_0__016_
*100 clknet_0__027_
*101 clknet_0__028_
*102 clknet_0__033_
*103 clknet_0__044_
*104 clknet_0__046_
*105 clknet_0__047_
*106 clknet_0__051_
*107 clknet_0__063_
*108 clknet_0_io_in[0]
*109 clknet_0_io_out[7]
*110 clknet_1_0__leaf__007_
*111 clknet_1_0__leaf__008_
*112 clknet_1_0__leaf__010_
*113 clknet_1_0__leaf__012_
*114 clknet_1_0__leaf__016_
*115 clknet_1_0__leaf__027_
*116 clknet_1_0__leaf__028_
*117 clknet_1_0__leaf__033_
*118 clknet_1_0__leaf__044_
*119 clknet_1_0__leaf__046_
*120 clknet_1_0__leaf__047_
*121 clknet_1_0__leaf__051_
*122 clknet_1_0__leaf__063_
*123 clknet_1_0__leaf_io_in[0]
*124 clknet_1_0__leaf_io_out[7]
*125 clknet_1_1__leaf__007_
*126 clknet_1_1__leaf__008_
*127 clknet_1_1__leaf__010_
*128 clknet_1_1__leaf__012_
*129 clknet_1_1__leaf__016_
*130 clknet_1_1__leaf__027_
*131 clknet_1_1__leaf__028_
*132 clknet_1_1__leaf__033_
*133 clknet_1_1__leaf__044_
*134 clknet_1_1__leaf__046_
*135 clknet_1_1__leaf__047_
*136 clknet_1_1__leaf__051_
*137 clknet_1_1__leaf__063_
*138 clknet_1_1__leaf_io_in[0]
*139 clknet_1_1__leaf_io_out[7]
*140 net1
*141 net2
*142 net3
*143 net4
*144 net5
*145 net6
*146 net7
*147 net8
*148 net9
*149 FILLER_0_109
*150 FILLER_0_113
*151 FILLER_0_125
*152 FILLER_0_137
*153 FILLER_0_141
*154 FILLER_0_15
*155 FILLER_0_153
*156 FILLER_0_165
*157 FILLER_0_169
*158 FILLER_0_181
*159 FILLER_0_193
*160 FILLER_0_197
*161 FILLER_0_209
*162 FILLER_0_221
*163 FILLER_0_225
*164 FILLER_0_237
*165 FILLER_0_249
*166 FILLER_0_253
*167 FILLER_0_265
*168 FILLER_0_27
*169 FILLER_0_277
*170 FILLER_0_281
*171 FILLER_0_29
*172 FILLER_0_293
*173 FILLER_0_3
*174 FILLER_0_41
*175 FILLER_0_53
*176 FILLER_0_57
*177 FILLER_0_69
*178 FILLER_0_81
*179 FILLER_0_85
*180 FILLER_0_97
*181 FILLER_10_109
*182 FILLER_10_121
*183 FILLER_10_133
*184 FILLER_10_139
*185 FILLER_10_141
*186 FILLER_10_15
*187 FILLER_10_153
*188 FILLER_10_165
*189 FILLER_10_177
*190 FILLER_10_189
*191 FILLER_10_195
*192 FILLER_10_197
*193 FILLER_10_209
*194 FILLER_10_221
*195 FILLER_10_233
*196 FILLER_10_245
*197 FILLER_10_251
*198 FILLER_10_253
*199 FILLER_10_265
*200 FILLER_10_27
*201 FILLER_10_277
*202 FILLER_10_289
*203 FILLER_10_29
*204 FILLER_10_297
*205 FILLER_10_3
*206 FILLER_10_41
*207 FILLER_10_53
*208 FILLER_10_65
*209 FILLER_10_77
*210 FILLER_10_83
*211 FILLER_10_85
*212 FILLER_10_97
*213 FILLER_11_105
*214 FILLER_11_111
*215 FILLER_11_113
*216 FILLER_11_125
*217 FILLER_11_137
*218 FILLER_11_149
*219 FILLER_11_15
*220 FILLER_11_161
*221 FILLER_11_167
*222 FILLER_11_169
*223 FILLER_11_181
*224 FILLER_11_193
*225 FILLER_11_205
*226 FILLER_11_217
*227 FILLER_11_223
*228 FILLER_11_225
*229 FILLER_11_237
*230 FILLER_11_249
*231 FILLER_11_261
*232 FILLER_11_27
*233 FILLER_11_273
*234 FILLER_11_279
*235 FILLER_11_281
*236 FILLER_11_293
*237 FILLER_11_3
*238 FILLER_11_39
*239 FILLER_11_51
*240 FILLER_11_55
*241 FILLER_11_57
*242 FILLER_11_69
*243 FILLER_11_81
*244 FILLER_11_93
*245 FILLER_12_109
*246 FILLER_12_121
*247 FILLER_12_133
*248 FILLER_12_139
*249 FILLER_12_141
*250 FILLER_12_153
*251 FILLER_12_165
*252 FILLER_12_177
*253 FILLER_12_189
*254 FILLER_12_195
*255 FILLER_12_197
*256 FILLER_12_20
*257 FILLER_12_209
*258 FILLER_12_221
*259 FILLER_12_233
*260 FILLER_12_245
*261 FILLER_12_251
*262 FILLER_12_253
*263 FILLER_12_265
*264 FILLER_12_277
*265 FILLER_12_289
*266 FILLER_12_29
*267 FILLER_12_297
*268 FILLER_12_3
*269 FILLER_12_41
*270 FILLER_12_53
*271 FILLER_12_65
*272 FILLER_12_77
*273 FILLER_12_8
*274 FILLER_12_83
*275 FILLER_12_85
*276 FILLER_12_97
*277 FILLER_13_105
*278 FILLER_13_111
*279 FILLER_13_113
*280 FILLER_13_125
*281 FILLER_13_137
*282 FILLER_13_149
*283 FILLER_13_15
*284 FILLER_13_161
*285 FILLER_13_167
*286 FILLER_13_169
*287 FILLER_13_181
*288 FILLER_13_193
*289 FILLER_13_205
*290 FILLER_13_217
*291 FILLER_13_223
*292 FILLER_13_225
*293 FILLER_13_237
*294 FILLER_13_249
*295 FILLER_13_261
*296 FILLER_13_27
*297 FILLER_13_273
*298 FILLER_13_279
*299 FILLER_13_281
*300 FILLER_13_293
*301 FILLER_13_3
*302 FILLER_13_39
*303 FILLER_13_51
*304 FILLER_13_55
*305 FILLER_13_57
*306 FILLER_13_69
*307 FILLER_13_81
*308 FILLER_13_93
*309 FILLER_14_109
*310 FILLER_14_12
*311 FILLER_14_121
*312 FILLER_14_133
*313 FILLER_14_139
*314 FILLER_14_141
*315 FILLER_14_153
*316 FILLER_14_165
*317 FILLER_14_177
*318 FILLER_14_189
*319 FILLER_14_195
*320 FILLER_14_197
*321 FILLER_14_209
*322 FILLER_14_221
*323 FILLER_14_233
*324 FILLER_14_24
*325 FILLER_14_245
*326 FILLER_14_251
*327 FILLER_14_253
*328 FILLER_14_265
*329 FILLER_14_277
*330 FILLER_14_289
*331 FILLER_14_29
*332 FILLER_14_297
*333 FILLER_14_3
*334 FILLER_14_41
*335 FILLER_14_53
*336 FILLER_14_65
*337 FILLER_14_77
*338 FILLER_14_83
*339 FILLER_14_85
*340 FILLER_14_97
*341 FILLER_15_105
*342 FILLER_15_111
*343 FILLER_15_113
*344 FILLER_15_125
*345 FILLER_15_137
*346 FILLER_15_149
*347 FILLER_15_161
*348 FILLER_15_167
*349 FILLER_15_169
*350 FILLER_15_181
*351 FILLER_15_193
*352 FILLER_15_205
*353 FILLER_15_21
*354 FILLER_15_217
*355 FILLER_15_223
*356 FILLER_15_225
*357 FILLER_15_237
*358 FILLER_15_249
*359 FILLER_15_261
*360 FILLER_15_273
*361 FILLER_15_279
*362 FILLER_15_281
*363 FILLER_15_293
*364 FILLER_15_3
*365 FILLER_15_33
*366 FILLER_15_45
*367 FILLER_15_53
*368 FILLER_15_57
*369 FILLER_15_69
*370 FILLER_15_81
*371 FILLER_15_9
*372 FILLER_15_93
*373 FILLER_16_109
*374 FILLER_16_121
*375 FILLER_16_133
*376 FILLER_16_139
*377 FILLER_16_141
*378 FILLER_16_153
*379 FILLER_16_165
*380 FILLER_16_177
*381 FILLER_16_189
*382 FILLER_16_195
*383 FILLER_16_197
*384 FILLER_16_20
*385 FILLER_16_209
*386 FILLER_16_221
*387 FILLER_16_233
*388 FILLER_16_245
*389 FILLER_16_251
*390 FILLER_16_253
*391 FILLER_16_265
*392 FILLER_16_277
*393 FILLER_16_289
*394 FILLER_16_29
*395 FILLER_16_297
*396 FILLER_16_3
*397 FILLER_16_41
*398 FILLER_16_53
*399 FILLER_16_65
*400 FILLER_16_77
*401 FILLER_16_8
*402 FILLER_16_83
*403 FILLER_16_85
*404 FILLER_16_97
*405 FILLER_17_105
*406 FILLER_17_111
*407 FILLER_17_113
*408 FILLER_17_12
*409 FILLER_17_125
*410 FILLER_17_137
*411 FILLER_17_149
*412 FILLER_17_161
*413 FILLER_17_167
*414 FILLER_17_169
*415 FILLER_17_181
*416 FILLER_17_193
*417 FILLER_17_205
*418 FILLER_17_21
*419 FILLER_17_217
*420 FILLER_17_223
*421 FILLER_17_225
*422 FILLER_17_237
*423 FILLER_17_249
*424 FILLER_17_261
*425 FILLER_17_273
*426 FILLER_17_279
*427 FILLER_17_281
*428 FILLER_17_29
*429 FILLER_17_293
*430 FILLER_17_3
*431 FILLER_17_41
*432 FILLER_17_53
*433 FILLER_17_57
*434 FILLER_17_69
*435 FILLER_17_81
*436 FILLER_17_93
*437 FILLER_18_109
*438 FILLER_18_11
*439 FILLER_18_121
*440 FILLER_18_133
*441 FILLER_18_139
*442 FILLER_18_141
*443 FILLER_18_153
*444 FILLER_18_165
*445 FILLER_18_177
*446 FILLER_18_189
*447 FILLER_18_19
*448 FILLER_18_195
*449 FILLER_18_197
*450 FILLER_18_209
*451 FILLER_18_221
*452 FILLER_18_233
*453 FILLER_18_245
*454 FILLER_18_251
*455 FILLER_18_253
*456 FILLER_18_265
*457 FILLER_18_27
*458 FILLER_18_277
*459 FILLER_18_289
*460 FILLER_18_29
*461 FILLER_18_297
*462 FILLER_18_3
*463 FILLER_18_34
*464 FILLER_18_46
*465 FILLER_18_58
*466 FILLER_18_70
*467 FILLER_18_82
*468 FILLER_18_85
*469 FILLER_18_97
*470 FILLER_19_10
*471 FILLER_19_105
*472 FILLER_19_111
*473 FILLER_19_113
*474 FILLER_19_125
*475 FILLER_19_137
*476 FILLER_19_149
*477 FILLER_19_161
*478 FILLER_19_167
*479 FILLER_19_169
*480 FILLER_19_181
*481 FILLER_19_193
*482 FILLER_19_205
*483 FILLER_19_217
*484 FILLER_19_22
*485 FILLER_19_223
*486 FILLER_19_225
*487 FILLER_19_237
*488 FILLER_19_249
*489 FILLER_19_261
*490 FILLER_19_273
*491 FILLER_19_279
*492 FILLER_19_281
*493 FILLER_19_293
*494 FILLER_19_3
*495 FILLER_19_34
*496 FILLER_19_40
*497 FILLER_19_48
*498 FILLER_19_57
*499 FILLER_19_69
*500 FILLER_19_81
*501 FILLER_19_93
*502 FILLER_1_105
*503 FILLER_1_111
*504 FILLER_1_113
*505 FILLER_1_125
*506 FILLER_1_137
*507 FILLER_1_149
*508 FILLER_1_15
*509 FILLER_1_161
*510 FILLER_1_167
*511 FILLER_1_169
*512 FILLER_1_181
*513 FILLER_1_193
*514 FILLER_1_205
*515 FILLER_1_217
*516 FILLER_1_223
*517 FILLER_1_225
*518 FILLER_1_237
*519 FILLER_1_249
*520 FILLER_1_261
*521 FILLER_1_27
*522 FILLER_1_273
*523 FILLER_1_279
*524 FILLER_1_281
*525 FILLER_1_293
*526 FILLER_1_3
*527 FILLER_1_39
*528 FILLER_1_51
*529 FILLER_1_55
*530 FILLER_1_57
*531 FILLER_1_69
*532 FILLER_1_81
*533 FILLER_1_93
*534 FILLER_20_109
*535 FILLER_20_11
*536 FILLER_20_121
*537 FILLER_20_133
*538 FILLER_20_139
*539 FILLER_20_141
*540 FILLER_20_153
*541 FILLER_20_165
*542 FILLER_20_177
*543 FILLER_20_18
*544 FILLER_20_189
*545 FILLER_20_195
*546 FILLER_20_197
*547 FILLER_20_209
*548 FILLER_20_221
*549 FILLER_20_233
*550 FILLER_20_245
*551 FILLER_20_251
*552 FILLER_20_253
*553 FILLER_20_26
*554 FILLER_20_265
*555 FILLER_20_277
*556 FILLER_20_289
*557 FILLER_20_29
*558 FILLER_20_297
*559 FILLER_20_3
*560 FILLER_20_41
*561 FILLER_20_53
*562 FILLER_20_65
*563 FILLER_20_77
*564 FILLER_20_83
*565 FILLER_20_85
*566 FILLER_20_97
*567 FILLER_21_105
*568 FILLER_21_111
*569 FILLER_21_113
*570 FILLER_21_125
*571 FILLER_21_137
*572 FILLER_21_149
*573 FILLER_21_15
*574 FILLER_21_161
*575 FILLER_21_167
*576 FILLER_21_169
*577 FILLER_21_181
*578 FILLER_21_193
*579 FILLER_21_205
*580 FILLER_21_21
*581 FILLER_21_217
*582 FILLER_21_223
*583 FILLER_21_225
*584 FILLER_21_237
*585 FILLER_21_249
*586 FILLER_21_261
*587 FILLER_21_273
*588 FILLER_21_279
*589 FILLER_21_281
*590 FILLER_21_293
*591 FILLER_21_3
*592 FILLER_21_35
*593 FILLER_21_47
*594 FILLER_21_55
*595 FILLER_21_57
*596 FILLER_21_69
*597 FILLER_21_7
*598 FILLER_21_81
*599 FILLER_21_93
*600 FILLER_22_109
*601 FILLER_22_12
*602 FILLER_22_121
*603 FILLER_22_133
*604 FILLER_22_139
*605 FILLER_22_141
*606 FILLER_22_153
*607 FILLER_22_165
*608 FILLER_22_177
*609 FILLER_22_189
*610 FILLER_22_195
*611 FILLER_22_197
*612 FILLER_22_209
*613 FILLER_22_22
*614 FILLER_22_221
*615 FILLER_22_233
*616 FILLER_22_245
*617 FILLER_22_251
*618 FILLER_22_253
*619 FILLER_22_265
*620 FILLER_22_277
*621 FILLER_22_289
*622 FILLER_22_29
*623 FILLER_22_297
*624 FILLER_22_3
*625 FILLER_22_35
*626 FILLER_22_42
*627 FILLER_22_50
*628 FILLER_22_56
*629 FILLER_22_68
*630 FILLER_22_80
*631 FILLER_22_85
*632 FILLER_22_97
*633 FILLER_23_105
*634 FILLER_23_111
*635 FILLER_23_113
*636 FILLER_23_125
*637 FILLER_23_13
*638 FILLER_23_137
*639 FILLER_23_149
*640 FILLER_23_161
*641 FILLER_23_167
*642 FILLER_23_169
*643 FILLER_23_181
*644 FILLER_23_193
*645 FILLER_23_205
*646 FILLER_23_21
*647 FILLER_23_217
*648 FILLER_23_223
*649 FILLER_23_225
*650 FILLER_23_237
*651 FILLER_23_249
*652 FILLER_23_261
*653 FILLER_23_273
*654 FILLER_23_279
*655 FILLER_23_28
*656 FILLER_23_281
*657 FILLER_23_293
*658 FILLER_23_3
*659 FILLER_23_40
*660 FILLER_23_44
*661 FILLER_23_48
*662 FILLER_23_57
*663 FILLER_23_69
*664 FILLER_23_81
*665 FILLER_23_93
*666 FILLER_24_109
*667 FILLER_24_121
*668 FILLER_24_133
*669 FILLER_24_139
*670 FILLER_24_14
*671 FILLER_24_141
*672 FILLER_24_153
*673 FILLER_24_165
*674 FILLER_24_177
*675 FILLER_24_189
*676 FILLER_24_195
*677 FILLER_24_197
*678 FILLER_24_209
*679 FILLER_24_221
*680 FILLER_24_233
*681 FILLER_24_245
*682 FILLER_24_25
*683 FILLER_24_251
*684 FILLER_24_253
*685 FILLER_24_265
*686 FILLER_24_277
*687 FILLER_24_289
*688 FILLER_24_29
*689 FILLER_24_297
*690 FILLER_24_3
*691 FILLER_24_37
*692 FILLER_24_49
*693 FILLER_24_61
*694 FILLER_24_73
*695 FILLER_24_81
*696 FILLER_24_85
*697 FILLER_24_97
*698 FILLER_25_105
*699 FILLER_25_111
*700 FILLER_25_113
*701 FILLER_25_12
*702 FILLER_25_125
*703 FILLER_25_137
*704 FILLER_25_149
*705 FILLER_25_161
*706 FILLER_25_167
*707 FILLER_25_169
*708 FILLER_25_181
*709 FILLER_25_193
*710 FILLER_25_205
*711 FILLER_25_217
*712 FILLER_25_223
*713 FILLER_25_225
*714 FILLER_25_237
*715 FILLER_25_249
*716 FILLER_25_261
*717 FILLER_25_273
*718 FILLER_25_279
*719 FILLER_25_281
*720 FILLER_25_293
*721 FILLER_25_3
*722 FILLER_25_36
*723 FILLER_25_48
*724 FILLER_25_57
*725 FILLER_25_69
*726 FILLER_25_81
*727 FILLER_25_93
*728 FILLER_26_109
*729 FILLER_26_121
*730 FILLER_26_133
*731 FILLER_26_139
*732 FILLER_26_141
*733 FILLER_26_153
*734 FILLER_26_165
*735 FILLER_26_17
*736 FILLER_26_177
*737 FILLER_26_189
*738 FILLER_26_195
*739 FILLER_26_197
*740 FILLER_26_209
*741 FILLER_26_221
*742 FILLER_26_233
*743 FILLER_26_245
*744 FILLER_26_251
*745 FILLER_26_253
*746 FILLER_26_26
*747 FILLER_26_265
*748 FILLER_26_277
*749 FILLER_26_289
*750 FILLER_26_29
*751 FILLER_26_297
*752 FILLER_26_3
*753 FILLER_26_39
*754 FILLER_26_46
*755 FILLER_26_58
*756 FILLER_26_70
*757 FILLER_26_82
*758 FILLER_26_85
*759 FILLER_26_97
*760 FILLER_27_105
*761 FILLER_27_111
*762 FILLER_27_113
*763 FILLER_27_12
*764 FILLER_27_125
*765 FILLER_27_137
*766 FILLER_27_149
*767 FILLER_27_161
*768 FILLER_27_167
*769 FILLER_27_169
*770 FILLER_27_181
*771 FILLER_27_193
*772 FILLER_27_205
*773 FILLER_27_217
*774 FILLER_27_223
*775 FILLER_27_225
*776 FILLER_27_237
*777 FILLER_27_249
*778 FILLER_27_261
*779 FILLER_27_273
*780 FILLER_27_279
*781 FILLER_27_281
*782 FILLER_27_293
*783 FILLER_27_3
*784 FILLER_27_36
*785 FILLER_27_44
*786 FILLER_27_52
*787 FILLER_27_57
*788 FILLER_27_69
*789 FILLER_27_81
*790 FILLER_27_93
*791 FILLER_28_109
*792 FILLER_28_121
*793 FILLER_28_133
*794 FILLER_28_139
*795 FILLER_28_141
*796 FILLER_28_153
*797 FILLER_28_165
*798 FILLER_28_177
*799 FILLER_28_189
*800 FILLER_28_195
*801 FILLER_28_197
*802 FILLER_28_209
*803 FILLER_28_221
*804 FILLER_28_233
*805 FILLER_28_245
*806 FILLER_28_25
*807 FILLER_28_251
*808 FILLER_28_253
*809 FILLER_28_265
*810 FILLER_28_277
*811 FILLER_28_289
*812 FILLER_28_29
*813 FILLER_28_297
*814 FILLER_28_3
*815 FILLER_28_39
*816 FILLER_28_51
*817 FILLER_28_58
*818 FILLER_28_70
*819 FILLER_28_82
*820 FILLER_28_85
*821 FILLER_28_97
*822 FILLER_29_110
*823 FILLER_29_113
*824 FILLER_29_12
*825 FILLER_29_125
*826 FILLER_29_137
*827 FILLER_29_149
*828 FILLER_29_161
*829 FILLER_29_167
*830 FILLER_29_169
*831 FILLER_29_181
*832 FILLER_29_193
*833 FILLER_29_205
*834 FILLER_29_217
*835 FILLER_29_223
*836 FILLER_29_225
*837 FILLER_29_237
*838 FILLER_29_249
*839 FILLER_29_261
*840 FILLER_29_273
*841 FILLER_29_279
*842 FILLER_29_281
*843 FILLER_29_293
*844 FILLER_29_3
*845 FILLER_29_36
*846 FILLER_29_48
*847 FILLER_29_57
*848 FILLER_29_62
*849 FILLER_29_74
*850 FILLER_29_86
*851 FILLER_29_98
*852 FILLER_2_109
*853 FILLER_2_121
*854 FILLER_2_133
*855 FILLER_2_139
*856 FILLER_2_141
*857 FILLER_2_15
*858 FILLER_2_153
*859 FILLER_2_165
*860 FILLER_2_177
*861 FILLER_2_189
*862 FILLER_2_195
*863 FILLER_2_197
*864 FILLER_2_209
*865 FILLER_2_221
*866 FILLER_2_233
*867 FILLER_2_245
*868 FILLER_2_251
*869 FILLER_2_253
*870 FILLER_2_265
*871 FILLER_2_27
*872 FILLER_2_277
*873 FILLER_2_289
*874 FILLER_2_29
*875 FILLER_2_297
*876 FILLER_2_3
*877 FILLER_2_41
*878 FILLER_2_53
*879 FILLER_2_65
*880 FILLER_2_77
*881 FILLER_2_83
*882 FILLER_2_85
*883 FILLER_2_97
*884 FILLER_30_109
*885 FILLER_30_121
*886 FILLER_30_133
*887 FILLER_30_139
*888 FILLER_30_141
*889 FILLER_30_153
*890 FILLER_30_165
*891 FILLER_30_177
*892 FILLER_30_189
*893 FILLER_30_195
*894 FILLER_30_197
*895 FILLER_30_209
*896 FILLER_30_221
*897 FILLER_30_233
*898 FILLER_30_245
*899 FILLER_30_251
*900 FILLER_30_253
*901 FILLER_30_26
*902 FILLER_30_265
*903 FILLER_30_277
*904 FILLER_30_289
*905 FILLER_30_29
*906 FILLER_30_297
*907 FILLER_30_3
*908 FILLER_30_40
*909 FILLER_30_44
*910 FILLER_30_65
*911 FILLER_30_77
*912 FILLER_30_83
*913 FILLER_30_85
*914 FILLER_30_97
*915 FILLER_31_100
*916 FILLER_31_113
*917 FILLER_31_12
*918 FILLER_31_125
*919 FILLER_31_137
*920 FILLER_31_149
*921 FILLER_31_161
*922 FILLER_31_167
*923 FILLER_31_169
*924 FILLER_31_181
*925 FILLER_31_193
*926 FILLER_31_205
*927 FILLER_31_217
*928 FILLER_31_223
*929 FILLER_31_225
*930 FILLER_31_237
*931 FILLER_31_249
*932 FILLER_31_261
*933 FILLER_31_273
*934 FILLER_31_279
*935 FILLER_31_281
*936 FILLER_31_293
*937 FILLER_31_3
*938 FILLER_31_36
*939 FILLER_31_49
*940 FILLER_31_55
*941 FILLER_31_57
*942 FILLER_31_67
*943 FILLER_31_76
*944 FILLER_31_88
*945 FILLER_32_109
*946 FILLER_32_121
*947 FILLER_32_133
*948 FILLER_32_139
*949 FILLER_32_141
*950 FILLER_32_153
*951 FILLER_32_165
*952 FILLER_32_177
*953 FILLER_32_189
*954 FILLER_32_195
*955 FILLER_32_197
*956 FILLER_32_209
*957 FILLER_32_221
*958 FILLER_32_233
*959 FILLER_32_245
*960 FILLER_32_251
*961 FILLER_32_253
*962 FILLER_32_26
*963 FILLER_32_265
*964 FILLER_32_277
*965 FILLER_32_289
*966 FILLER_32_29
*967 FILLER_32_297
*968 FILLER_32_3
*969 FILLER_32_53
*970 FILLER_32_65
*971 FILLER_32_75
*972 FILLER_32_82
*973 FILLER_32_85
*974 FILLER_32_97
*975 FILLER_33_100
*976 FILLER_33_113
*977 FILLER_33_12
*978 FILLER_33_125
*979 FILLER_33_137
*980 FILLER_33_149
*981 FILLER_33_161
*982 FILLER_33_167
*983 FILLER_33_169
*984 FILLER_33_181
*985 FILLER_33_193
*986 FILLER_33_205
*987 FILLER_33_217
*988 FILLER_33_223
*989 FILLER_33_225
*990 FILLER_33_237
*991 FILLER_33_249
*992 FILLER_33_261
*993 FILLER_33_273
*994 FILLER_33_279
*995 FILLER_33_281
*996 FILLER_33_293
*997 FILLER_33_3
*998 FILLER_33_36
*999 FILLER_33_50
*1000 FILLER_33_57
*1001 FILLER_33_67
*1002 FILLER_33_78
*1003 FILLER_33_88
*1004 FILLER_34_105
*1005 FILLER_34_117
*1006 FILLER_34_129
*1007 FILLER_34_137
*1008 FILLER_34_141
*1009 FILLER_34_153
*1010 FILLER_34_165
*1011 FILLER_34_177
*1012 FILLER_34_189
*1013 FILLER_34_195
*1014 FILLER_34_197
*1015 FILLER_34_209
*1016 FILLER_34_221
*1017 FILLER_34_233
*1018 FILLER_34_245
*1019 FILLER_34_25
*1020 FILLER_34_251
*1021 FILLER_34_253
*1022 FILLER_34_265
*1023 FILLER_34_277
*1024 FILLER_34_289
*1025 FILLER_34_29
*1026 FILLER_34_297
*1027 FILLER_34_3
*1028 FILLER_34_51
*1029 FILLER_34_65
*1030 FILLER_34_77
*1031 FILLER_34_83
*1032 FILLER_34_85
*1033 FILLER_34_93
*1034 FILLER_35_110
*1035 FILLER_35_113
*1036 FILLER_35_12
*1037 FILLER_35_125
*1038 FILLER_35_137
*1039 FILLER_35_149
*1040 FILLER_35_161
*1041 FILLER_35_167
*1042 FILLER_35_169
*1043 FILLER_35_181
*1044 FILLER_35_193
*1045 FILLER_35_205
*1046 FILLER_35_217
*1047 FILLER_35_223
*1048 FILLER_35_225
*1049 FILLER_35_237
*1050 FILLER_35_249
*1051 FILLER_35_261
*1052 FILLER_35_273
*1053 FILLER_35_279
*1054 FILLER_35_281
*1055 FILLER_35_293
*1056 FILLER_35_3
*1057 FILLER_35_36
*1058 FILLER_35_52
*1059 FILLER_35_57
*1060 FILLER_35_79
*1061 FILLER_35_91
*1062 FILLER_35_98
*1063 FILLER_36_107
*1064 FILLER_36_119
*1065 FILLER_36_131
*1066 FILLER_36_139
*1067 FILLER_36_141
*1068 FILLER_36_153
*1069 FILLER_36_165
*1070 FILLER_36_177
*1071 FILLER_36_189
*1072 FILLER_36_195
*1073 FILLER_36_197
*1074 FILLER_36_209
*1075 FILLER_36_221
*1076 FILLER_36_233
*1077 FILLER_36_245
*1078 FILLER_36_251
*1079 FILLER_36_253
*1080 FILLER_36_26
*1081 FILLER_36_265
*1082 FILLER_36_277
*1083 FILLER_36_289
*1084 FILLER_36_29
*1085 FILLER_36_297
*1086 FILLER_36_3
*1087 FILLER_36_57
*1088 FILLER_36_81
*1089 FILLER_36_85
*1090 FILLER_36_95
*1091 FILLER_37_103
*1092 FILLER_37_111
*1093 FILLER_37_113
*1094 FILLER_37_125
*1095 FILLER_37_137
*1096 FILLER_37_149
*1097 FILLER_37_161
*1098 FILLER_37_167
*1099 FILLER_37_169
*1100 FILLER_37_181
*1101 FILLER_37_193
*1102 FILLER_37_205
*1103 FILLER_37_217
*1104 FILLER_37_223
*1105 FILLER_37_225
*1106 FILLER_37_237
*1107 FILLER_37_249
*1108 FILLER_37_25
*1109 FILLER_37_261
*1110 FILLER_37_273
*1111 FILLER_37_279
*1112 FILLER_37_281
*1113 FILLER_37_293
*1114 FILLER_37_3
*1115 FILLER_37_49
*1116 FILLER_37_55
*1117 FILLER_37_57
*1118 FILLER_37_79
*1119 FILLER_37_92
*1120 FILLER_38_108
*1121 FILLER_38_120
*1122 FILLER_38_132
*1123 FILLER_38_141
*1124 FILLER_38_153
*1125 FILLER_38_165
*1126 FILLER_38_177
*1127 FILLER_38_189
*1128 FILLER_38_195
*1129 FILLER_38_197
*1130 FILLER_38_209
*1131 FILLER_38_221
*1132 FILLER_38_233
*1133 FILLER_38_245
*1134 FILLER_38_251
*1135 FILLER_38_253
*1136 FILLER_38_26
*1137 FILLER_38_265
*1138 FILLER_38_277
*1139 FILLER_38_289
*1140 FILLER_38_29
*1141 FILLER_38_297
*1142 FILLER_38_3
*1143 FILLER_38_51
*1144 FILLER_38_75
*1145 FILLER_38_82
*1146 FILLER_38_85
*1147 FILLER_38_96
*1148 FILLER_39_102
*1149 FILLER_39_110
*1150 FILLER_39_113
*1151 FILLER_39_125
*1152 FILLER_39_137
*1153 FILLER_39_149
*1154 FILLER_39_161
*1155 FILLER_39_167
*1156 FILLER_39_169
*1157 FILLER_39_181
*1158 FILLER_39_193
*1159 FILLER_39_205
*1160 FILLER_39_217
*1161 FILLER_39_223
*1162 FILLER_39_225
*1163 FILLER_39_237
*1164 FILLER_39_249
*1165 FILLER_39_261
*1166 FILLER_39_273
*1167 FILLER_39_279
*1168 FILLER_39_281
*1169 FILLER_39_293
*1170 FILLER_39_3
*1171 FILLER_39_30
*1172 FILLER_39_54
*1173 FILLER_39_57
*1174 FILLER_39_79
*1175 FILLER_39_9
*1176 FILLER_39_92
*1177 FILLER_3_105
*1178 FILLER_3_111
*1179 FILLER_3_113
*1180 FILLER_3_125
*1181 FILLER_3_137
*1182 FILLER_3_149
*1183 FILLER_3_15
*1184 FILLER_3_161
*1185 FILLER_3_167
*1186 FILLER_3_169
*1187 FILLER_3_181
*1188 FILLER_3_193
*1189 FILLER_3_205
*1190 FILLER_3_217
*1191 FILLER_3_223
*1192 FILLER_3_225
*1193 FILLER_3_237
*1194 FILLER_3_249
*1195 FILLER_3_261
*1196 FILLER_3_27
*1197 FILLER_3_273
*1198 FILLER_3_279
*1199 FILLER_3_281
*1200 FILLER_3_293
*1201 FILLER_3_3
*1202 FILLER_3_39
*1203 FILLER_3_51
*1204 FILLER_3_55
*1205 FILLER_3_57
*1206 FILLER_3_69
*1207 FILLER_3_81
*1208 FILLER_3_93
*1209 FILLER_40_104
*1210 FILLER_40_116
*1211 FILLER_40_128
*1212 FILLER_40_141
*1213 FILLER_40_153
*1214 FILLER_40_165
*1215 FILLER_40_177
*1216 FILLER_40_189
*1217 FILLER_40_195
*1218 FILLER_40_197
*1219 FILLER_40_209
*1220 FILLER_40_221
*1221 FILLER_40_233
*1222 FILLER_40_245
*1223 FILLER_40_251
*1224 FILLER_40_253
*1225 FILLER_40_26
*1226 FILLER_40_265
*1227 FILLER_40_277
*1228 FILLER_40_289
*1229 FILLER_40_29
*1230 FILLER_40_297
*1231 FILLER_40_3
*1232 FILLER_40_34
*1233 FILLER_40_60
*1234 FILLER_40_74
*1235 FILLER_40_81
*1236 FILLER_40_85
*1237 FILLER_40_94
*1238 FILLER_41_103
*1239 FILLER_41_111
*1240 FILLER_41_113
*1241 FILLER_41_12
*1242 FILLER_41_125
*1243 FILLER_41_137
*1244 FILLER_41_149
*1245 FILLER_41_161
*1246 FILLER_41_167
*1247 FILLER_41_169
*1248 FILLER_41_181
*1249 FILLER_41_193
*1250 FILLER_41_205
*1251 FILLER_41_217
*1252 FILLER_41_223
*1253 FILLER_41_225
*1254 FILLER_41_237
*1255 FILLER_41_249
*1256 FILLER_41_261
*1257 FILLER_41_273
*1258 FILLER_41_279
*1259 FILLER_41_281
*1260 FILLER_41_293
*1261 FILLER_41_3
*1262 FILLER_41_36
*1263 FILLER_41_50
*1264 FILLER_41_57
*1265 FILLER_41_79
*1266 FILLER_41_91
*1267 FILLER_42_109
*1268 FILLER_42_121
*1269 FILLER_42_133
*1270 FILLER_42_139
*1271 FILLER_42_141
*1272 FILLER_42_153
*1273 FILLER_42_165
*1274 FILLER_42_177
*1275 FILLER_42_189
*1276 FILLER_42_195
*1277 FILLER_42_197
*1278 FILLER_42_209
*1279 FILLER_42_221
*1280 FILLER_42_233
*1281 FILLER_42_245
*1282 FILLER_42_251
*1283 FILLER_42_253
*1284 FILLER_42_26
*1285 FILLER_42_265
*1286 FILLER_42_277
*1287 FILLER_42_289
*1288 FILLER_42_29
*1289 FILLER_42_297
*1290 FILLER_42_3
*1291 FILLER_42_38
*1292 FILLER_42_62
*1293 FILLER_42_75
*1294 FILLER_42_83
*1295 FILLER_42_85
*1296 FILLER_42_97
*1297 FILLER_43_104
*1298 FILLER_43_113
*1299 FILLER_43_125
*1300 FILLER_43_137
*1301 FILLER_43_149
*1302 FILLER_43_161
*1303 FILLER_43_167
*1304 FILLER_43_169
*1305 FILLER_43_181
*1306 FILLER_43_193
*1307 FILLER_43_205
*1308 FILLER_43_217
*1309 FILLER_43_223
*1310 FILLER_43_225
*1311 FILLER_43_237
*1312 FILLER_43_249
*1313 FILLER_43_261
*1314 FILLER_43_273
*1315 FILLER_43_279
*1316 FILLER_43_281
*1317 FILLER_43_293
*1318 FILLER_43_3
*1319 FILLER_43_30
*1320 FILLER_43_54
*1321 FILLER_43_57
*1322 FILLER_43_68
*1323 FILLER_43_80
*1324 FILLER_43_9
*1325 FILLER_43_92
*1326 FILLER_44_109
*1327 FILLER_44_121
*1328 FILLER_44_133
*1329 FILLER_44_139
*1330 FILLER_44_141
*1331 FILLER_44_153
*1332 FILLER_44_165
*1333 FILLER_44_177
*1334 FILLER_44_189
*1335 FILLER_44_195
*1336 FILLER_44_197
*1337 FILLER_44_209
*1338 FILLER_44_221
*1339 FILLER_44_233
*1340 FILLER_44_245
*1341 FILLER_44_251
*1342 FILLER_44_253
*1343 FILLER_44_26
*1344 FILLER_44_265
*1345 FILLER_44_277
*1346 FILLER_44_289
*1347 FILLER_44_29
*1348 FILLER_44_297
*1349 FILLER_44_3
*1350 FILLER_44_41
*1351 FILLER_44_65
*1352 FILLER_44_75
*1353 FILLER_44_83
*1354 FILLER_44_85
*1355 FILLER_44_97
*1356 FILLER_45_102
*1357 FILLER_45_110
*1358 FILLER_45_113
*1359 FILLER_45_12
*1360 FILLER_45_125
*1361 FILLER_45_137
*1362 FILLER_45_149
*1363 FILLER_45_161
*1364 FILLER_45_167
*1365 FILLER_45_169
*1366 FILLER_45_181
*1367 FILLER_45_193
*1368 FILLER_45_205
*1369 FILLER_45_217
*1370 FILLER_45_223
*1371 FILLER_45_225
*1372 FILLER_45_237
*1373 FILLER_45_249
*1374 FILLER_45_261
*1375 FILLER_45_273
*1376 FILLER_45_279
*1377 FILLER_45_281
*1378 FILLER_45_293
*1379 FILLER_45_3
*1380 FILLER_45_36
*1381 FILLER_45_50
*1382 FILLER_45_57
*1383 FILLER_45_66
*1384 FILLER_45_78
*1385 FILLER_45_90
*1386 FILLER_46_109
*1387 FILLER_46_121
*1388 FILLER_46_133
*1389 FILLER_46_139
*1390 FILLER_46_141
*1391 FILLER_46_153
*1392 FILLER_46_165
*1393 FILLER_46_177
*1394 FILLER_46_189
*1395 FILLER_46_195
*1396 FILLER_46_197
*1397 FILLER_46_209
*1398 FILLER_46_221
*1399 FILLER_46_233
*1400 FILLER_46_245
*1401 FILLER_46_25
*1402 FILLER_46_251
*1403 FILLER_46_253
*1404 FILLER_46_265
*1405 FILLER_46_277
*1406 FILLER_46_289
*1407 FILLER_46_29
*1408 FILLER_46_297
*1409 FILLER_46_3
*1410 FILLER_46_51
*1411 FILLER_46_63
*1412 FILLER_46_75
*1413 FILLER_46_83
*1414 FILLER_46_85
*1415 FILLER_46_97
*1416 FILLER_47_105
*1417 FILLER_47_111
*1418 FILLER_47_113
*1419 FILLER_47_125
*1420 FILLER_47_13
*1421 FILLER_47_137
*1422 FILLER_47_149
*1423 FILLER_47_161
*1424 FILLER_47_167
*1425 FILLER_47_169
*1426 FILLER_47_181
*1427 FILLER_47_193
*1428 FILLER_47_205
*1429 FILLER_47_217
*1430 FILLER_47_223
*1431 FILLER_47_225
*1432 FILLER_47_237
*1433 FILLER_47_249
*1434 FILLER_47_261
*1435 FILLER_47_273
*1436 FILLER_47_279
*1437 FILLER_47_281
*1438 FILLER_47_293
*1439 FILLER_47_3
*1440 FILLER_47_34
*1441 FILLER_47_46
*1442 FILLER_47_54
*1443 FILLER_47_57
*1444 FILLER_47_69
*1445 FILLER_47_81
*1446 FILLER_47_9
*1447 FILLER_47_93
*1448 FILLER_48_109
*1449 FILLER_48_121
*1450 FILLER_48_133
*1451 FILLER_48_139
*1452 FILLER_48_141
*1453 FILLER_48_153
*1454 FILLER_48_165
*1455 FILLER_48_177
*1456 FILLER_48_189
*1457 FILLER_48_195
*1458 FILLER_48_197
*1459 FILLER_48_209
*1460 FILLER_48_221
*1461 FILLER_48_233
*1462 FILLER_48_245
*1463 FILLER_48_25
*1464 FILLER_48_251
*1465 FILLER_48_253
*1466 FILLER_48_265
*1467 FILLER_48_277
*1468 FILLER_48_289
*1469 FILLER_48_29
*1470 FILLER_48_297
*1471 FILLER_48_3
*1472 FILLER_48_51
*1473 FILLER_48_63
*1474 FILLER_48_75
*1475 FILLER_48_83
*1476 FILLER_48_85
*1477 FILLER_48_97
*1478 FILLER_49_105
*1479 FILLER_49_111
*1480 FILLER_49_113
*1481 FILLER_49_12
*1482 FILLER_49_125
*1483 FILLER_49_137
*1484 FILLER_49_149
*1485 FILLER_49_161
*1486 FILLER_49_167
*1487 FILLER_49_169
*1488 FILLER_49_181
*1489 FILLER_49_193
*1490 FILLER_49_205
*1491 FILLER_49_217
*1492 FILLER_49_223
*1493 FILLER_49_225
*1494 FILLER_49_237
*1495 FILLER_49_249
*1496 FILLER_49_261
*1497 FILLER_49_273
*1498 FILLER_49_279
*1499 FILLER_49_281
*1500 FILLER_49_293
*1501 FILLER_49_3
*1502 FILLER_49_36
*1503 FILLER_49_48
*1504 FILLER_49_57
*1505 FILLER_49_69
*1506 FILLER_49_81
*1507 FILLER_49_93
*1508 FILLER_4_109
*1509 FILLER_4_121
*1510 FILLER_4_133
*1511 FILLER_4_139
*1512 FILLER_4_141
*1513 FILLER_4_15
*1514 FILLER_4_153
*1515 FILLER_4_165
*1516 FILLER_4_177
*1517 FILLER_4_189
*1518 FILLER_4_195
*1519 FILLER_4_197
*1520 FILLER_4_209
*1521 FILLER_4_221
*1522 FILLER_4_233
*1523 FILLER_4_245
*1524 FILLER_4_251
*1525 FILLER_4_253
*1526 FILLER_4_265
*1527 FILLER_4_27
*1528 FILLER_4_277
*1529 FILLER_4_289
*1530 FILLER_4_29
*1531 FILLER_4_297
*1532 FILLER_4_3
*1533 FILLER_4_41
*1534 FILLER_4_53
*1535 FILLER_4_65
*1536 FILLER_4_77
*1537 FILLER_4_83
*1538 FILLER_4_85
*1539 FILLER_4_97
*1540 FILLER_50_109
*1541 FILLER_50_121
*1542 FILLER_50_133
*1543 FILLER_50_139
*1544 FILLER_50_141
*1545 FILLER_50_153
*1546 FILLER_50_165
*1547 FILLER_50_177
*1548 FILLER_50_189
*1549 FILLER_50_195
*1550 FILLER_50_197
*1551 FILLER_50_209
*1552 FILLER_50_221
*1553 FILLER_50_233
*1554 FILLER_50_245
*1555 FILLER_50_25
*1556 FILLER_50_251
*1557 FILLER_50_253
*1558 FILLER_50_265
*1559 FILLER_50_277
*1560 FILLER_50_289
*1561 FILLER_50_29
*1562 FILLER_50_297
*1563 FILLER_50_3
*1564 FILLER_50_41
*1565 FILLER_50_53
*1566 FILLER_50_65
*1567 FILLER_50_77
*1568 FILLER_50_83
*1569 FILLER_50_85
*1570 FILLER_50_97
*1571 FILLER_51_105
*1572 FILLER_51_111
*1573 FILLER_51_113
*1574 FILLER_51_125
*1575 FILLER_51_137
*1576 FILLER_51_149
*1577 FILLER_51_161
*1578 FILLER_51_167
*1579 FILLER_51_169
*1580 FILLER_51_181
*1581 FILLER_51_193
*1582 FILLER_51_205
*1583 FILLER_51_217
*1584 FILLER_51_223
*1585 FILLER_51_225
*1586 FILLER_51_237
*1587 FILLER_51_249
*1588 FILLER_51_25
*1589 FILLER_51_261
*1590 FILLER_51_273
*1591 FILLER_51_279
*1592 FILLER_51_281
*1593 FILLER_51_293
*1594 FILLER_51_3
*1595 FILLER_51_37
*1596 FILLER_51_49
*1597 FILLER_51_55