*SPEF "ieee 1481-1999"
*DESIGN "stevenmburns_toplevel"
*DATE "11:11:11 Fri 11 11, 1111"
*VENDOR "OpenRCX"
*PROGRAM "Parallel Extraction"
*VERSION "1.0"
*DESIGN_FLOW "NAME_SCOPE LOCAL" "PIN_CAP NONE"
*DIVIDER /
*DELIMITER :
*BUS_DELIMITER []
*T_UNIT 1 NS
*C_UNIT 1 PF
*R_UNIT 1 OHM
*L_UNIT 1 HENRY

*NAME_MAP
*1 io_in[0]
*2 io_in[1]
*3 io_in[2]
*4 io_in[3]
*5 io_in[4]
*6 io_in[5]
*7 io_in[6]
*8 io_in[7]
*9 io_out[0]
*10 io_out[1]
*11 net4
*12 net5
*13 net6
*14 net7
*15 net8
*16 net9
*19 _000_
*20 _001_
*21 _002_
*22 _003_
*23 _004_
*24 _005_
*25 _006_
*26 _007_
*27 _008_
*28 _009_
*29 _010_
*30 _011_
*31 _012_
*32 _013_
*33 _014_
*34 _015_
*35 _016_
*36 _017_
*37 _018_
*38 _019_
*39 _020_
*40 _021_
*41 _022_
*42 _023_
*43 _024_
*44 _025_
*45 _026_
*46 _027_
*47 _028_
*48 _029_
*49 _030_
*50 _031_
*51 _032_
*52 _033_
*53 _034_
*54 _035_
*55 _036_
*56 _037_
*57 _038_
*58 _039_
*59 _040_
*60 _041_
*61 _042_
*62 _043_
*63 _044_
*64 _045_
*65 _046_
*66 _047_
*67 _048_
*68 _049_
*69 _050_
*70 _051_
*71 _052_
*72 _053_
*73 _054_
*74 _055_
*75 _056_
*76 _057_
*77 _058_
*78 _059_
*79 _060_
*80 _061_
*81 _062_
*82 _063_
*83 _064_
*84 _065_
*85 _066_
*86 _067_
*87 _068_
*88 _069_
*89 _070_
*90 _071_
*91 _072_
*92 _073_
*93 _074_
*94 _075_
*95 _076_
*96 _077_
*97 _078_
*98 _079_
*99 _080_
*100 _081_
*101 _082_
*102 _083_
*103 _084_
*104 _085_
*105 _086_
*106 _087_
*107 _088_
*108 _089_
*109 _090_
*110 _091_
*111 _092_
*112 _093_
*113 _094_
*114 _095_
*115 _096_
*116 _097_
*117 _098_
*118 _099_
*119 _100_
*120 _101_
*121 _102_
*122 _103_
*123 _104_
*124 _105_
*125 _106_
*126 _107_
*127 _108_
*128 _109_
*129 _110_
*130 _111_
*131 _112_
*132 _113_
*133 _114_
*134 _115_
*135 _116_
*136 _117_
*137 _118_
*138 _119_
*139 _120_
*140 _121_
*141 _122_
*142 _123_
*143 _124_
*144 _125_
*145 _126_
*146 _127_
*147 _128_
*148 _129_
*149 _130_
*150 _131_
*151 _132_
*152 _133_
*153 _134_
*154 _135_
*155 _136_
*156 _137_
*157 _138_
*158 _139_
*159 _140_
*160 _141_
*161 _142_
*162 _143_
*163 _144_
*164 _145_
*165 _146_
*166 _147_
*167 _148_
*168 _149_
*169 _150_
*170 _151_
*171 _152_
*172 _153_
*173 _154_
*174 _155_
*175 _156_
*176 _157_
*177 _158_
*178 _159_
*179 _160_
*180 _161_
*181 _162_
*182 _163_
*183 _164_
*184 _165_
*185 _166_
*186 _167_
*187 _168_
*188 _169_
*189 _170_
*190 _171_
*191 _172_
*192 _173_
*193 _174_
*194 _175_
*195 _176_
*196 _177_
*197 _178_
*198 _179_
*199 _180_
*200 _181_
*201 _182_
*202 _183_
*203 _184_
*204 _185_
*205 _186_
*206 _187_
*207 _188_
*208 _189_
*209 _190_
*210 _191_
*211 _192_
*212 _193_
*213 _194_
*214 _195_
*215 _196_
*216 _197_
*217 _198_
*218 _199_
*219 _200_
*220 _201_
*221 _202_
*222 _203_
*223 _204_
*224 _205_
*225 _206_
*226 _207_
*227 _208_
*228 _209_
*229 _210_
*230 _211_
*231 _212_
*232 _213_
*233 _214_
*234 _215_
*235 _216_
*236 _217_
*237 _218_
*238 _219_
*239 _220_
*240 _221_
*241 _222_
*242 _223_
*243 _224_
*244 _225_
*245 _226_
*246 _227_
*247 _228_
*248 _229_
*249 _230_
*250 _231_
*251 _232_
*252 _233_
*253 _234_
*254 _235_
*255 _236_
*256 _237_
*257 _238_
*258 _239_
*259 _240_
*260 _241_
*261 _242_
*262 _243_
*263 _244_
*264 _245_
*265 _246_
*266 _247_
*267 _248_
*268 _249_
*269 _250_
*270 _251_
*271 _252_
*272 _253_
*273 _254_
*274 _255_
*275 _256_
*276 _257_
*277 _258_
*278 _259_
*279 _260_
*280 _261_
*281 _262_
*282 _263_
*283 _264_
*284 _265_
*285 _266_
*286 _267_
*287 _268_
*288 _269_
*289 _270_
*290 _271_
*291 _272_
*292 _273_
*293 _274_
*294 _275_
*295 _276_
*296 _277_
*297 _278_
*298 _279_
*299 _280_
*300 _281_
*301 clknet_0_io_in[0]
*302 clknet_2_0__leaf_io_in[0]
*303 clknet_2_1__leaf_io_in[0]
*304 clknet_2_2__leaf_io_in[0]
*305 clknet_2_3__leaf_io_in[0]
*306 net1
*307 net2
*308 net3
*309 u0\._u_T\[10\]
*310 u0\._u_T\[11\]
*311 u0\._u_T\[12\]
*312 u0\._u_T\[1\]
*313 u0\._u_T\[2\]
*314 u0\._u_T\[3\]
*315 u0\._u_T\[4\]
*316 u0\._u_T\[5\]
*317 u0\._u_T\[6\]
*318 u0\._u_T\[7\]
*319 u0\._u_T\[8\]
*320 u0\._u_T\[9\]
*321 u0\._v_T\[10\]
*322 u0\._v_T\[11\]
*323 u0\._v_T\[12\]
*324 u0\._v_T\[1\]
*325 u0\._v_T\[2\]
*326 u0\._v_T\[3\]
*327 u0\._v_T\[4\]
*328 u0\._v_T\[5\]
*329 u0\._v_T\[6\]
*330 u0\._v_T\[7\]
*331 u0\._v_T\[8\]
*332 u0\._v_T\[9\]
*333 u0\.io_done
*334 u0\.u_mask_vec_0
*335 u0\.u_mask_vec_1
*336 u0\.u_mask_vec_10
*337 u0\.u_mask_vec_11
*338 u0\.u_mask_vec_2
*339 u0\.u_mask_vec_3
*340 u0\.u_mask_vec_4
*341 u0\.u_mask_vec_5
*342 u0\.u_mask_vec_6
*343 u0\.u_mask_vec_7
*344 u0\.u_mask_vec_8
*345 u0\.u_mask_vec_9
*346 ANTENNA_1
*347 ANTENNA_2
*348 ANTENNA_3
*349 ANTENNA_4
*350 ANTENNA_5
*351 FILLER_0_105
*352 FILLER_0_110
*353 FILLER_0_113
*354 FILLER_0_126
*355 FILLER_0_138
*356 FILLER_0_141
*357 FILLER_0_153
*358 FILLER_0_165
*359 FILLER_0_169
*360 FILLER_0_181
*361 FILLER_0_193
*362 FILLER_0_197
*363 FILLER_0_209
*364 FILLER_0_221
*365 FILLER_0_225
*366 FILLER_0_237
*367 FILLER_0_249
*368 FILLER_0_253
*369 FILLER_0_26
*370 FILLER_0_265
*371 FILLER_0_277
*372 FILLER_0_281
*373 FILLER_0_29
*374 FILLER_0_293
*375 FILLER_0_3
*376 FILLER_0_48
*377 FILLER_0_57
*378 FILLER_0_75
*379 FILLER_0_82
*380 FILLER_0_85
*381 FILLER_0_89
*382 FILLER_0_9
*383 FILLER_0_97
*384 FILLER_10_103
*385 FILLER_10_112
*386 FILLER_10_121
*387 FILLER_10_129
*388 FILLER_10_138
*389 FILLER_10_141
*390 FILLER_10_145
*391 FILLER_10_155
*392 FILLER_10_164
*393 FILLER_10_183
*394 FILLER_10_195
*395 FILLER_10_197
*396 FILLER_10_205
*397 FILLER_10_21
*398 FILLER_10_213
*399 FILLER_10_225
*400 FILLER_10_237
*401 FILLER_10_249
*402 FILLER_10_253
*403 FILLER_10_265
*404 FILLER_10_27
*405 FILLER_10_277
*406 FILLER_10_289
*407 FILLER_10_29
*408 FILLER_10_297
*409 FILLER_10_3
*410 FILLER_10_51
*411 FILLER_10_61
*412 FILLER_10_69
*413 FILLER_10_79
*414 FILLER_10_83
*415 FILLER_10_85
*416 FILLER_10_94
*417 FILLER_11_101
*418 FILLER_11_110
*419 FILLER_11_113
*420 FILLER_11_127
*421 FILLER_11_139
*422 FILLER_11_143
*423 FILLER_11_153
*424 FILLER_11_166
*425 FILLER_11_169
*426 FILLER_11_175
*427 FILLER_11_179
*428 FILLER_11_191
*429 FILLER_11_203
*430 FILLER_11_215
*431 FILLER_11_22
*432 FILLER_11_223
*433 FILLER_11_225
*434 FILLER_11_237
*435 FILLER_11_249
*436 FILLER_11_261
*437 FILLER_11_273
*438 FILLER_11_279
*439 FILLER_11_281
*440 FILLER_11_293
*441 FILLER_11_3
*442 FILLER_11_51
*443 FILLER_11_55
*444 FILLER_11_57
*445 FILLER_11_63
*446 FILLER_11_73
*447 FILLER_11_84
*448 FILLER_11_92
*449 FILLER_12_109
*450 FILLER_12_122
*451 FILLER_12_136
*452 FILLER_12_141
*453 FILLER_12_146
*454 FILLER_12_154
*455 FILLER_12_164
*456 FILLER_12_176
*457 FILLER_12_184
*458 FILLER_12_189
*459 FILLER_12_195
*460 FILLER_12_197
*461 FILLER_12_209
*462 FILLER_12_221
*463 FILLER_12_233
*464 FILLER_12_245
*465 FILLER_12_25
*466 FILLER_12_251
*467 FILLER_12_253
*468 FILLER_12_265
*469 FILLER_12_277
*470 FILLER_12_285
*471 FILLER_12_29
*472 FILLER_12_294
*473 FILLER_12_298
*474 FILLER_12_3
*475 FILLER_12_41
*476 FILLER_12_65
*477 FILLER_12_76
*478 FILLER_12_85
*479 FILLER_12_94
*480 FILLER_13_103
*481 FILLER_13_111
*482 FILLER_13_113
*483 FILLER_13_120
*484 FILLER_13_134
*485 FILLER_13_146
*486 FILLER_13_158
*487 FILLER_13_165
*488 FILLER_13_169
*489 FILLER_13_177
*490 FILLER_13_189
*491 FILLER_13_201
*492 FILLER_13_220
*493 FILLER_13_225
*494 FILLER_13_237
*495 FILLER_13_249
*496 FILLER_13_261
*497 FILLER_13_273
*498 FILLER_13_279
*499 FILLER_13_281
*500 FILLER_13_293
*501 FILLER_13_3
*502 FILLER_13_32
*503 FILLER_13_53
*504 FILLER_13_57
*505 FILLER_13_73
*506 FILLER_13_77
*507 FILLER_13_8
*508 FILLER_13_86
*509 FILLER_13_94
*510 FILLER_14_103
*511 FILLER_14_112
*512 FILLER_14_116
*513 FILLER_14_124
*514 FILLER_14_134
*515 FILLER_14_141
*516 FILLER_14_153
*517 FILLER_14_165
*518 FILLER_14_171
*519 FILLER_14_177
*520 FILLER_14_189
*521 FILLER_14_195
*522 FILLER_14_197
*523 FILLER_14_209
*524 FILLER_14_221
*525 FILLER_14_233
*526 FILLER_14_245
*527 FILLER_14_251
*528 FILLER_14_253
*529 FILLER_14_26
*530 FILLER_14_265
*531 FILLER_14_277
*532 FILLER_14_289
*533 FILLER_14_29
*534 FILLER_14_297
*535 FILLER_14_3
*536 FILLER_14_52
*537 FILLER_14_72
*538 FILLER_14_82
*539 FILLER_14_85
*540 FILLER_14_91
*541 FILLER_15_103
*542 FILLER_15_111
*543 FILLER_15_113
*544 FILLER_15_121
*545 FILLER_15_125
*546 FILLER_15_133
*547 FILLER_15_139
*548 FILLER_15_149
*549 FILLER_15_161
*550 FILLER_15_167
*551 FILLER_15_169
*552 FILLER_15_177
*553 FILLER_15_184
*554 FILLER_15_196
*555 FILLER_15_208
*556 FILLER_15_220
*557 FILLER_15_225
*558 FILLER_15_237
*559 FILLER_15_249
*560 FILLER_15_261
*561 FILLER_15_27
*562 FILLER_15_273
*563 FILLER_15_279
*564 FILLER_15_281
*565 FILLER_15_293
*566 FILLER_15_3
*567 FILLER_15_35
*568 FILLER_15_54
*569 FILLER_15_57
*570 FILLER_15_66
*571 FILLER_15_77
*572 FILLER_15_83
*573 FILLER_15_9
*574 FILLER_15_90
*575 FILLER_15_96
*576 FILLER_16_102
*577 FILLER_16_106
*578 FILLER_16_114
*579 FILLER_16_122
*580 FILLER_16_132
*581 FILLER_16_141
*582 FILLER_16_149
*583 FILLER_16_159
*584 FILLER_16_171
*585 FILLER_16_183
*586 FILLER_16_195
*587 FILLER_16_197
*588 FILLER_16_209
*589 FILLER_16_221
*590 FILLER_16_233
*591 FILLER_16_245
*592 FILLER_16_251
*593 FILLER_16_253
*594 FILLER_16_26
*595 FILLER_16_265
*596 FILLER_16_277
*597 FILLER_16_289
*598 FILLER_16_29
*599 FILLER_16_297
*600 FILLER_16_3
*601 FILLER_16_34
*602 FILLER_16_55
*603 FILLER_16_59
*604 FILLER_16_69
*605 FILLER_16_82
*606 FILLER_16_85
*607 FILLER_16_95
*608 FILLER_17_100
*609 FILLER_17_110
*610 FILLER_17_113
*611 FILLER_17_126
*612 FILLER_17_144
*613 FILLER_17_156
*614 FILLER_17_169
*615 FILLER_17_177
*616 FILLER_17_184
*617 FILLER_17_196
*618 FILLER_17_208
*619 FILLER_17_220
*620 FILLER_17_225
*621 FILLER_17_237
*622 FILLER_17_249
*623 FILLER_17_261
*624 FILLER_17_273
*625 FILLER_17_279
*626 FILLER_17_281
*627 FILLER_17_293
*628 FILLER_17_3
*629 FILLER_17_32
*630 FILLER_17_52
*631 FILLER_17_57
*632 FILLER_17_73
*633 FILLER_17_77
*634 FILLER_17_8
*635 FILLER_17_87
*636 FILLER_17_93
*637 FILLER_18_102
*638 FILLER_18_106
*639 FILLER_18_114
*640 FILLER_18_123
*641 FILLER_18_135
*642 FILLER_18_139
*643 FILLER_18_141
*644 FILLER_18_149
*645 FILLER_18_159
*646 FILLER_18_170
*647 FILLER_18_182
*648 FILLER_18_194
*649 FILLER_18_197
*650 FILLER_18_209
*651 FILLER_18_21
*652 FILLER_18_221
*653 FILLER_18_233
*654 FILLER_18_245
*655 FILLER_18_251
*656 FILLER_18_253
*657 FILLER_18_265
*658 FILLER_18_27
*659 FILLER_18_277
*660 FILLER_18_289
*661 FILLER_18_29
*662 FILLER_18_297
*663 FILLER_18_3
*664 FILLER_18_34
*665 FILLER_18_41
*666 FILLER_18_54
*667 FILLER_18_67
*668 FILLER_18_75
*669 FILLER_18_82
*670 FILLER_18_85
*671 FILLER_18_95
*672 FILLER_19_101
*673 FILLER_19_110
*674 FILLER_19_113
*675 FILLER_19_125
*676 FILLER_19_133
*677 FILLER_19_146
*678 FILLER_19_156
*679 FILLER_19_169
*680 FILLER_19_181
*681 FILLER_19_187
*682 FILLER_19_199
*683 FILLER_19_21
*684 FILLER_19_211
*685 FILLER_19_223
*686 FILLER_19_225
*687 FILLER_19_237
*688 FILLER_19_249
*689 FILLER_19_261
*690 FILLER_19_27
*691 FILLER_19_273
*692 FILLER_19_279
*693 FILLER_19_281
*694 FILLER_19_293
*695 FILLER_19_3
*696 FILLER_19_34
*697 FILLER_19_47
*698 FILLER_19_54
*699 FILLER_19_57
*700 FILLER_19_69
*701 FILLER_19_78
*702 FILLER_19_90
*703 FILLER_19_94
*704 FILLER_1_100
*705 FILLER_1_110
*706 FILLER_1_113
*707 FILLER_1_128
*708 FILLER_1_135
*709 FILLER_1_142
*710 FILLER_1_154
*711 FILLER_1_161
*712 FILLER_1_167
*713 FILLER_1_169
*714 FILLER_1_181
*715 FILLER_1_185
*716 FILLER_1_190
*717 FILLER_1_200
*718 FILLER_1_217
*719 FILLER_1_223
*720 FILLER_1_225
*721 FILLER_1_237
*722 FILLER_1_24
*723 FILLER_1_249
*724 FILLER_1_261
*725 FILLER_1_273
*726 FILLER_1_279
*727 FILLER_1_28
*728 FILLER_1_281
*729 FILLER_1_293
*730 FILLER_1_3
*731 FILLER_1_47
*732 FILLER_1_55
*733 FILLER_1_57
*734 FILLER_1_61
*735 FILLER_1_70
*736 FILLER_1_80
*737 FILLER_1_92
*738 FILLER_20_101
*739 FILLER_20_11
*740 FILLER_20_113
*741 FILLER_20_130
*742 FILLER_20_138
*743 FILLER_20_141
*744 FILLER_20_149
*745 FILLER_20_159
*746 FILLER_20_16
*747 FILLER_20_167
*748 FILLER_20_175
*749 FILLER_20_187
*750 FILLER_20_195
*751 FILLER_20_197
*752 FILLER_20_209
*753 FILLER_20_221
*754 FILLER_20_233
*755 FILLER_20_245
*756 FILLER_20_251
*757 FILLER_20_253
*758 FILLER_20_26
*759 FILLER_20_265
*760 FILLER_20_277
*761 FILLER_20_289
*762 FILLER_20_29
*763 FILLER_20_297
*764 FILLER_20_3
*765 FILLER_20_37
*766 FILLER_20_43
*767 FILLER_20_50
*768 FILLER_20_58
*769 FILLER_20_63
*770 FILLER_20_72
*771 FILLER_20_82
*772 FILLER_20_85
*773 FILLER_21_110
*774 FILLER_21_113
*775 FILLER_21_122
*776 FILLER_21_133
*777 FILLER_21_145
*778 FILLER_21_15
*779 FILLER_21_157
*780 FILLER_21_165
*781 FILLER_21_169
*782 FILLER_21_181
*783 FILLER_21_185
*784 FILLER_21_189
*785 FILLER_21_201
*786 FILLER_21_213
*787 FILLER_21_221
*788 FILLER_21_225
*789 FILLER_21_23
*790 FILLER_21_237
*791 FILLER_21_249
*792 FILLER_21_261
*793 FILLER_21_27
*794 FILLER_21_273
*795 FILLER_21_279
*796 FILLER_21_281
*797 FILLER_21_293
*798 FILLER_21_3
*799 FILLER_21_37
*800 FILLER_21_54
*801 FILLER_21_57
*802 FILLER_21_68
*803 FILLER_21_77
*804 FILLER_21_92
*805 FILLER_22_104
*806 FILLER_22_118
*807 FILLER_22_130
*808 FILLER_22_138
*809 FILLER_22_141
*810 FILLER_22_145
*811 FILLER_22_15
*812 FILLER_22_152
*813 FILLER_22_167
*814 FILLER_22_171
*815 FILLER_22_175
*816 FILLER_22_186
*817 FILLER_22_194
*818 FILLER_22_197
*819 FILLER_22_209
*820 FILLER_22_221
*821 FILLER_22_233
*822 FILLER_22_245
*823 FILLER_22_251
*824 FILLER_22_253
*825 FILLER_22_265
*826 FILLER_22_27
*827 FILLER_22_277
*828 FILLER_22_289
*829 FILLER_22_29
*830 FILLER_22_297
*831 FILLER_22_3
*832 FILLER_22_34
*833 FILLER_22_38
*834 FILLER_22_42
*835 FILLER_22_50
*836 FILLER_22_54
*837 FILLER_22_67
*838 FILLER_22_71
*839 FILLER_22_81
*840 FILLER_22_85
*841 FILLER_22_93
*842 FILLER_23_109
*843 FILLER_23_113
*844 FILLER_23_121
*845 FILLER_23_131
*846 FILLER_23_143
*847 FILLER_23_15
*848 FILLER_23_155
*849 FILLER_23_166
*850 FILLER_23_169
*851 FILLER_23_173
*852 FILLER_23_179
*853 FILLER_23_191
*854 FILLER_23_203
*855 FILLER_23_215
*856 FILLER_23_223
*857 FILLER_23_225
*858 FILLER_23_237
*859 FILLER_23_249
*860 FILLER_23_261
*861 FILLER_23_27
*862 FILLER_23_273
*863 FILLER_23_279
*864 FILLER_23_281
*865 FILLER_23_293
*866 FILLER_23_3
*867 FILLER_23_35
*868 FILLER_23_43
*869 FILLER_23_53
*870 FILLER_23_57
*871 FILLER_23_63
*872 FILLER_23_71
*873 FILLER_23_84
*874 FILLER_23_90
*875 FILLER_23_99
*876 FILLER_24_105
*877 FILLER_24_117
*878 FILLER_24_125
*879 FILLER_24_136
*880 FILLER_24_141
*881 FILLER_24_149
*882 FILLER_24_15
*883 FILLER_24_158
*884 FILLER_24_170
*885 FILLER_24_182
*886 FILLER_24_19
*887 FILLER_24_194
*888 FILLER_24_197
*889 FILLER_24_209
*890 FILLER_24_221
*891 FILLER_24_233
*892 FILLER_24_245
*893 FILLER_24_251
*894 FILLER_24_253
*895 FILLER_24_26
*896 FILLER_24_265
*897 FILLER_24_277
*898 FILLER_24_289
*899 FILLER_24_29
*900 FILLER_24_297
*901 FILLER_24_3
*902 FILLER_24_40
*903 FILLER_24_47
*904 FILLER_24_57
*905 FILLER_24_65
*906 FILLER_24_82
*907 FILLER_24_85
*908 FILLER_24_91
*909 FILLER_24_97
*910 FILLER_25_107
*911 FILLER_25_111
*912 FILLER_25_113
*913 FILLER_25_124
*914 FILLER_25_136
*915 FILLER_25_148
*916 FILLER_25_15
*917 FILLER_25_160
*918 FILLER_25_169
*919 FILLER_25_178
*920 FILLER_25_190
*921 FILLER_25_202
*922 FILLER_25_214
*923 FILLER_25_222
*924 FILLER_25_225
*925 FILLER_25_237
*926 FILLER_25_249
*927 FILLER_25_261
*928 FILLER_25_27
*929 FILLER_25_273
*930 FILLER_25_279
*931 FILLER_25_281
*932 FILLER_25_293
*933 FILLER_25_3
*934 FILLER_25_34
*935 FILLER_25_41
*936 FILLER_25_54
*937 FILLER_25_57
*938 FILLER_25_66
*939 FILLER_25_76
*940 FILLER_25_84
*941 FILLER_25_96
*942 FILLER_26_103
*943 FILLER_26_115
*944 FILLER_26_127
*945 FILLER_26_137
*946 FILLER_26_141
*947 FILLER_26_15
*948 FILLER_26_152
*949 FILLER_26_160
*950 FILLER_26_169
*951 FILLER_26_179
*952 FILLER_26_19
*953 FILLER_26_191
*954 FILLER_26_195
*955 FILLER_26_197
*956 FILLER_26_209
*957 FILLER_26_221
*958 FILLER_26_233
*959 FILLER_26_245
*960 FILLER_26_251
*961 FILLER_26_253
*962 FILLER_26_26
*963 FILLER_26_265
*964 FILLER_26_277
*965 FILLER_26_289
*966 FILLER_26_29
*967 FILLER_26_297
*968 FILLER_26_3
*969 FILLER_26_41
*970 FILLER_26_50
*971 FILLER_26_62
*972 FILLER_26_70
*973 FILLER_26_79
*974 FILLER_26_83
*975 FILLER_26_85
*976 FILLER_26_94
*977 FILLER_27_106
*978 FILLER_27_113
*979 FILLER_27_125
*980 FILLER_27_131
*981 FILLER_27_135
*982 FILLER_27_147
*983 FILLER_27_15
*984 FILLER_27_155
*985 FILLER_27_163
*986 FILLER_27_167
*987 FILLER_27_169
*988 FILLER_27_181
*989 FILLER_27_193
*990 FILLER_27_205
*991 FILLER_27_217
*992 FILLER_27_223
*993 FILLER_27_225
*994 FILLER_27_237
*995 FILLER_27_249
*996 FILLER_27_261
*997 FILLER_27_27
*998 FILLER_27_273
*999 FILLER_27_279
*1000 FILLER_27_281
*1001 FILLER_27_293
*1002 FILLER_27_3
*1003 FILLER_27_39
*1004 FILLER_27_54
*1005 FILLER_27_57
*1006 FILLER_27_69
*1007 FILLER_27_77
*1008 FILLER_27_88
*1009 FILLER_27_92
*1010 FILLER_27_96
*1011 FILLER_28_107
*1012 FILLER_28_119
*1013 FILLER_28_130
*1014 FILLER_28_138
*1015 FILLER_28_141
*1016 FILLER_28_152
*1017 FILLER_28_16
*1018 FILLER_28_164
*1019 FILLER_28_171
*1020 FILLER_28_183
*1021 FILLER_28_195
*1022 FILLER_28_197
*1023 FILLER_28_209
*1024 FILLER_28_221
*1025 FILLER_28_233
*1026 FILLER_28_245
*1027 FILLER_28_251
*1028 FILLER_28_253
*1029 FILLER_28_26
*1030 FILLER_28_265
*1031 FILLER_28_277
*1032 FILLER_28_289
*1033 FILLER_28_29
*1034 FILLER_28_297
*1035 FILLER_28_3
*1036 FILLER_28_37
*1037 FILLER_28_47
*1038 FILLER_28_62
*1039 FILLER_28_70
*1040 FILLER_28_79
*1041 FILLER_28_83
*1042 FILLER_28_85
*1043 FILLER_28_9
*1044 FILLER_28_97
*1045 FILLER_29_105
*1046 FILLER_29_111
*1047 FILLER_29_113
*1048 FILLER_29_125
*1049 FILLER_29_137
*1050 FILLER_29_143
*1051 FILLER_29_147
*1052 FILLER_29_15
*1053 FILLER_29_159
*1054 FILLER_29_167
*1055 FILLER_29_169
*1056 FILLER_29_181
*1057 FILLER_29_193
*1058 FILLER_29_205
*1059 FILLER_29_217
*1060 FILLER_29_223
*1061 FILLER_29_225
*1062 FILLER_29_23
*1063 FILLER_29_237
*1064 FILLER_29_249
*1065 FILLER_29_261
*1066 FILLER_29_273
*1067 FILLER_29_279
*1068 FILLER_29_281
*1069 FILLER_29_293
*1070 FILLER_29_3
*1071 FILLER_29_35
*1072 FILLER_29_47
*1073 FILLER_29_55
*1074 FILLER_29_57
*1075 FILLER_29_69
*1076 FILLER_29_81
*1077 FILLER_29_93
*1078 FILLER_2_106
*1079 FILLER_2_117
*1080 FILLER_2_121
*1081 FILLER_2_125
*1082 FILLER_2_138
*1083 FILLER_2_141
*1084 FILLER_2_153
*1085 FILLER_2_172
*1086 FILLER_2_182
*1087 FILLER_2_194
*1088 FILLER_2_197
*1089 FILLER_2_209
*1090 FILLER_2_221
*1091 FILLER_2_233
*1092 FILLER_2_245
*1093 FILLER_2_25
*1094 FILLER_2_251
*1095 FILLER_2_253
*1096 FILLER_2_265
*1097 FILLER_2_277
*1098 FILLER_2_289
*1099 FILLER_2_29
*1100 FILLER_2_297
*1101 FILLER_2_3
*1102 FILLER_2_49
*1103 FILLER_2_69
*1104 FILLER_2_82
*1105 FILLER_2_85
*1106 FILLER_2_90
*1107 FILLER_2_96
*1108 FILLER_30_110
*1109 FILLER_30_118
*1110 FILLER_30_126
*1111 FILLER_30_138
*1112 FILLER_30_141
*1113 FILLER_30_146
*1114 FILLER_30_15
*1115 FILLER_30_158
*1116 FILLER_30_170
*1117 FILLER_30_182
*1118 FILLER_30_194
*1119 FILLER_30_197
*1120 FILLER_30_209
*1121 FILLER_30_221
*1122 FILLER_30_233
*1123 FILLER_30_245
*1124 FILLER_30_251
*1125 FILLER_30_253
*1126 FILLER_30_265
*1127 FILLER_30_27
*1128 FILLER_30_277
*1129 FILLER_30_289
*1130 FILLER_30_29
*1131 FILLER_30_297
*1132 FILLER_30_3
*1133 FILLER_30_41
*1134 FILLER_30_53
*1135 FILLER_30_57
*1136 FILLER_30_64
*1137 FILLER_30_76
*1138 FILLER_30_85
*1139 FILLER_30_98
*1140 FILLER_31_108
*1141 FILLER_31_113
*1142 FILLER_31_124
*1143 FILLER_31_132
*1144 FILLER_31_142
*1145 FILLER_31_15
*1146 FILLER_31_157
*1147 FILLER_31_165
*1148 FILLER_31_169
*1149 FILLER_31_181
*1150 FILLER_31_193
*1151 FILLER_31_205
*1152 FILLER_31_217
*1153 FILLER_31_223
*1154 FILLER_31_225
*1155 FILLER_31_237
*1156 FILLER_31_249
*1157 FILLER_31_261
*1158 FILLER_31_27
*1159 FILLER_31_273
*1160 FILLER_31_279
*1161 FILLER_31_281
*1162 FILLER_31_293
*1163 FILLER_31_3
*1164 FILLER_31_39
*1165 FILLER_31_54
*1166 FILLER_31_57
*1167 FILLER_31_68
*1168 FILLER_31_80
*1169 FILLER_31_88
*1170 FILLER_31_96
*1171 FILLER_32_109
*1172 FILLER_32_121
*1173 FILLER_32_136
*1174 FILLER_32_141
*1175 FILLER_32_15
*1176 FILLER_32_153
*1177 FILLER_32_165
*1178 FILLER_32_177
*1179 FILLER_32_189
*1180 FILLER_32_195
*1181 FILLER_32_197
*1182 FILLER_32_209
*1183 FILLER_32_21
*1184 FILLER_32_221
*1185 FILLER_32_233
*1186 FILLER_32_245
*1187 FILLER_32_251
*1188 FILLER_32_253
*1189 FILLER_32_265
*1190 FILLER_32_27
*1191 FILLER_32_277
*1192 FILLER_32_289
*1193 FILLER_32_29
*1194 FILLER_32_297
*1195 FILLER_32_3
*1196 FILLER_32_41
*1197 FILLER_32_53
*1198 FILLER_32_65
*1199 FILLER_32_77
*1200 FILLER_32_83
*1201 FILLER_32_85
*1202 FILLER_32_97
*1203 FILLER_33_105
*1204 FILLER_33_111
*1205 FILLER_33_113
*1206 FILLER_33_121
*1207 FILLER_33_133
*1208 FILLER_33_145
*1209 FILLER_33_15
*1210 FILLER_33_157
*1211 FILLER_33_165
*1212 FILLER_33_169
*1213 FILLER_33_181
*1214 FILLER_33_193
*1215 FILLER_33_205
*1216 FILLER_33_217
*1217 FILLER_33_223
*1218 FILLER_33_225
*1219 FILLER_33_237
*1220 FILLER_33_249
*1221 FILLER_33_261
*1222 FILLER_33_27
*1223 FILLER_33_273
*1224 FILLER_33_279
*1225 FILLER_33_281
*1226 FILLER_33_293
*1227 FILLER_33_3
*1228 FILLER_33_39
*1229 FILLER_33_51
*1230 FILLER_33_55
*1231 FILLER_33_57
*1232 FILLER_33_69
*1233 FILLER_33_81
*1234 FILLER_33_93
*1235 FILLER_34_109
*1236 FILLER_34_121
*1237 FILLER_34_133
*1238 FILLER_34_139
*1239 FILLER_34_141
*1240 FILLER_34_15
*1241 FILLER_34_153
*1242 FILLER_34_165
*1243 FILLER_34_177
*1244 FILLER_34_189
*1245 FILLER_34_195
*1246 FILLER_34_197
*1247 FILLER_34_209
*1248 FILLER_34_221
*1249 FILLER_34_233
*1250 FILLER_34_245
*1251 FILLER_34_251
*1252 FILLER_34_253
*1253 FILLER_34_265
*1254 FILLER_34_27
*1255 FILLER_34_277
*1256 FILLER_34_289
*1257 FILLER_34_29
*1258 FILLER_34_297
*1259 FILLER_34_3
*1260 FILLER_34_41
*1261 FILLER_34_53
*1262 FILLER_34_65
*1263 FILLER_34_77
*1264 FILLER_34_83
*1265 FILLER_34_85
*1266 FILLER_34_97
*1267 FILLER_35_103
*1268 FILLER_35_111
*1269 FILLER_35_113
*1270 FILLER_35_125
*1271 FILLER_35_137
*1272 FILLER_35_149
*1273 FILLER_35_15
*1274 FILLER_35_161
*1275 FILLER_35_167
*1276 FILLER_35_169
*1277 FILLER_35_181
*1278 FILLER_35_193
*1279 FILLER_35_205
*1280 FILLER_35_217
*1281 FILLER_35_223
*1282 FILLER_35_225
*1283 FILLER_35_237
*1284 FILLER_35_249
*1285 FILLER_35_261
*1286 FILLER_35_27
*1287 FILLER_35_273
*1288 FILLER_35_279
*1289 FILLER_35_281
*1290 FILLER_35_293
*1291 FILLER_35_3
*1292 FILLER_35_39
*1293 FILLER_35_51
*1294 FILLER_35_55
*1295 FILLER_35_57
*1296 FILLER_35_69
*1297 FILLER_35_81
*1298 FILLER_35_91
*1299 FILLER_36_109
*1300 FILLER_36_121
*1301 FILLER_36_133
*1302 FILLER_36_139
*1303 FILLER_36_141
*1304 FILLER_36_15
*1305 FILLER_36_153
*1306 FILLER_36_165
*1307 FILLER_36_177
*1308 FILLER_36_189
*1309 FILLER_36_195
*1310 FILLER_36_197
*1311 FILLER_36_209
*1312 FILLER_36_221
*1313 FILLER_36_233
*1314 FILLER_36_245
*1315 FILLER_36_251
*1316 FILLER_36_253
*1317 FILLER_36_265
*1318 FILLER_36_27
*1319 FILLER_36_277
*1320 FILLER_36_289
*1321 FILLER_36_29
*1322 FILLER_36_297
*1323 FILLER_36_3
*1324 FILLER_36_34
*1325 FILLER_36_38
*1326 FILLER_36_50
*1327 FILLER_36_62
*1328 FILLER_36_74
*1329 FILLER_36_82
*1330 FILLER_36_85
*1331 FILLER_36_97
*1332 FILLER_37_105
*1333 FILLER_37_111
*1334 FILLER_37_113
*1335 FILLER_37_125
*1336 FILLER_37_137
*1337 FILLER_37_149
*1338 FILLER_37_15
*1339 FILLER_37_161
*1340 FILLER_37_167
*1341 FILLER_37_169
*1342 FILLER_37_181
*1343 FILLER_37_193
*1344 FILLER_37_205
*1345 FILLER_37_217
*1346 FILLER_37_223
*1347 FILLER_37_225
*1348 FILLER_37_237
*1349 FILLER_37_249
*1350 FILLER_37_261
*1351 FILLER_37_27
*1352 FILLER_37_273
*1353 FILLER_37_279
*1354 FILLER_37_281
*1355 FILLER_37_293
*1356 FILLER_37_3
*1357 FILLER_37_39
*1358 FILLER_37_51
*1359 FILLER_37_55
*1360 FILLER_37_57
*1361 FILLER_37_69
*1362 FILLER_37_81
*1363 FILLER_37_93
*1364 FILLER_38_109
*1365 FILLER_38_121
*1366 FILLER_38_133
*1367 FILLER_38_139
*1368 FILLER_38_141
*1369 FILLER_38_15
*1370 FILLER_38_153
*1371 FILLER_38_165
*1372 FILLER_38_177
*1373 FILLER_38_189
*1374 FILLER_38_195
*1375 FILLER_38_197
*1376 FILLER_38_209
*1377 FILLER_38_221
*1378 FILLER_38_233
*1379 FILLER_38_245
*1380 FILLER_38_251
*1381 FILLER_38_253
*1382 FILLER_38_265
*1383 FILLER_38_27
*1384 FILLER_38_277
*1385 FILLER_38_289
*1386 FILLER_38_29
*1387 FILLER_38_297
*1388 FILLER_38_3
*1389 FILLER_38_41
*1390 FILLER_38_53
*1391 FILLER_38_65
*1392 FILLER_38_77
*1393 FILLER_38_83
*1394 FILLER_38_85
*1395 FILLER_38_97
*1396 FILLER_39_105
*1397 FILLER_39_111
*1398 FILLER_39_113
*1399 FILLER_39_125
*1400 FILLER_39_137
*1401 FILLER_39_149
*1402 FILLER_39_161
*1403 FILLER_39_167
*1404 FILLER_39_169
*1405 FILLER_39_181
*1406 FILLER_39_193
*1407 FILLER_39_20
*1408 FILLER_39_205
*1409 FILLER_39_217
*1410 FILLER_39_223
*1411 FILLER_39_225
*1412 FILLER_39_237
*1413 FILLER_39_249
*1414 FILLER_39_261
*1415 FILLER_39_273
*1416 FILLER_39_279
*1417 FILLER_39_281
*1418 FILLER_39_293
*1419 FILLER_39_3
*1420 FILLER_39_32
*1421 FILLER_39_44
*1422 FILLER_39_57
*1423 FILLER_39_69
*1424 FILLER_39_8
*1425 FILLER_39_81
*1426 FILLER_39_93
*1427 FILLER_3_102
*1428 FILLER_3_106
*1429 FILLER_3_113
*1430 FILLER_3_118
*1431 FILLER_3_130
*1432 FILLER_3_142
*1433 FILLER_3_15
*1434 FILLER_3_154
*1435 FILLER_3_166
*1436 FILLER_3_169
*1437 FILLER_3_181
*1438 FILLER_3_193
*1439 FILLER_3_205
*1440 FILLER_3_217
*1441 FILLER_3_223
*1442 FILLER_3_225
*1443 FILLER_3_237
*1444 FILLER_3_249
*1445 FILLER_3_261
*1446 FILLER_3_273
*1447 FILLER_3_279
*1448 FILLER_3_281
*1449 FILLER_3_293
*1450 FILLER_3_3
*1451 FILLER_3_36
*1452 FILLER_3_43
*1453 FILLER_3_54
*1454 FILLER_3_57
*1455 FILLER_3_62
*1456 FILLER_3_73
*1457 FILLER_3_82
*1458 FILLER_3_9
*1459 FILLER_3_94
*1460 FILLER_40_109
*1461 FILLER_40_121
*1462 FILLER_40_133
*1463 FILLER_40_139
*1464 FILLER_40_141
*1465 FILLER_40_15
*1466 FILLER_40_153
*1467 FILLER_40_165
*1468 FILLER_40_177
*1469 FILLER_40_189
*1470 FILLER_40_195
*1471 FILLER_40_197
*1472 FILLER_40_209
*1473 FILLER_40_221
*1474 FILLER_40_233
*1475 FILLER_40_245
*1476 FILLER_40_251
*1477 FILLER_40_253
*1478 FILLER_40_265
*1479 FILLER_40_27
*1480 FILLER_40_277
*1481 FILLER_40_289
*1482 FILLER_40_29
*1483 FILLER_40_297
*1484 FILLER_40_3
*1485 FILLER_40_41
*1486 FILLER_40_53
*1487 FILLER_40_65
*1488 FILLER_40_77
*1489 FILLER_40_83
*1490 FILLER_40_85
*1491 FILLER_40_97
*1492 FILLER_41_105
*1493 FILLER_41_111
*1494 FILLER_41_113
*1495 FILLER_41_125
*1496 FILLER_41_137
*1497 FILLER_41_149
*1498 FILLER_41_15
*1499 FILLER_41_161
*1500 FILLER_41_167
*1501 FILLER_41_169
*1502 FILLER_41_181
*1503 FILLER_41_193
*1504 FILLER_41_205
*1505 FILLER_41_217
*1506 FILLER_41_223
*1507 FILLER_41_225
*1508 FILLER_41_237
*1509 FILLER_41_249
*1510 FILLER_41_261
*1511 FILLER_41_27
*1512 FILLER_41_273
*1513 FILLER_41_279
*1514 FILLER_41_281
*1515 FILLER_41_293
*1516 FILLER_41_3
*1517 FILLER_41_39
*1518 FILLER_41_51
*1519 FILLER_41_55
*1520 FILLER_41_57
*1521 FILLER_41_69
*1522 FILLER_41_81
*1523 FILLER_41_93
*1524 FILLER_42_109
*1525 FILLER_42_121
*1526 FILLER_42_133
*1527 FILLER_42_139
*1528 FILLER_42_141
*1529 FILLER_42_153
*1530 FILLER_42_165
*1531 FILLER_42_177
*1532 FILLER_42_189
*1533 FILLER_42_195
*1534 FILLER_42_197
*1535 FILLER_42_20
*1536 FILLER_42_209
*1537 FILLER_42_221
*1538 FILLER_42_233
*1539 FILLER_42_245
*1540 FILLER_42_251
*1541 FILLER_42_253
*1542 FILLER_42_265
*1543 FILLER_42_277
*1544 FILLER_42_289
*1545 FILLER_42_29
*1546 FILLER_42_297
*1547 FILLER_42_3
*1548 FILLER_42_41
*1549 FILLER_42_53
*1550 FILLER_42_65
*1551 FILLER_42_77
*1552 FILLER_42_8
*1553 FILLER_42_83
*1554 FILLER_42_85
*1555 FILLER_42_97
*1556 FILLER_43_105
*1557 FILLER_43_111
*1558 FILLER_43_113
*1559 FILLER_43_125
*1560 FILLER_43_137
*1561 FILLER_43_149
*1562 FILLER_43_15
*1563 FILLER_43_161
*1564 FILLER_43_167
*1565 FILLER_43_169
*1566 FILLER_43_181
*1567 FILLER_43_193
*1568 FILLER_43_205
*1569 FILLER_43_217
*1570 FILLER_43_223
*1571 FILLER_43_225
*1572 FILLER_43_237
*1573 FILLER_43_249
*1574 FILLER_43_261
*1575 FILLER_43_27
*1576 FILLER_43_273
*1577 FILLER_43_279
*1578 FILLER_43_281
*1579 FILLER_43_293
*1580 FILLER_43_3
*1581 FILLER_43_39
*1582 FILLER_43_51
*1583 FILLER_43_55
*1584 FILLER_43_57
*1585 FILLER_43_69
*1586 FILLER_43_81
*1587 FILLER_43_93
*1588 FILLER_44_109
*1589 FILLER_44_121
*1590 FILLER_44_133
*1591 FILLER_44_139
*1592 FILLER_44_141
*1593 FILLER_44_15
*1594 FILLER_44_153
*1595 FILLER_44_165
*1596 FILLER_44_177
*1597 FILLER_44_189
*1598 FILLER_44_195
*1599 FILLER_44_197
*1600 FILLER_44_209
*1601 FILLER_44_221
*1602 FILLER_44_233
*1603 FILLER_44_245
*1604 FILLER_44_251
*1605 FILLER_44_253
*1606 FILLER_44_265
*1607 FILLER_44_27
*1608 FILLER_44_277
*1609 FILLER_44_289
*1610 FILLER_44_29
*1611 FILLER_44_297
*1612 FILLER_44_3
*1613 FILLER_44_41
*1614 FILLER_44_53
*1615 FILLER_44_65
*1616 FILLER_44_77
*1617 FILLER_44_83
*1618 FILLER_44_85
*1619 FILLER_44_97
*1620 FILLER_45_105
*1621 FILLER_45_111
*1622 FILLER_45_113
*1623 FILLER_45_125
*1624 FILLER_45_137
*1625 FILLER_45_149
*1626 FILLER_45_15
*1627 FILLER_45_161
*1628 FILLER_45_167
*1629 FILLER_45_169
*1630 FILLER_45_181
*1631 FILLER_45_193
*1632 FILLER_45_205
*1633 FILLER_45_217
*1634 FILLER_45_223
*1635 FILLER_45_225
*1636 FILLER_45_237
*1637 FILLER_45_249
*1638 FILLER_45_261
*1639 FILLER_45_27
*1640 FILLER_45_273
*1641 FILLER_45_279
*1642 FILLER_45_281
*1643 FILLER_45_293
*1644 FILLER_45_3
*1645 FILLER_45_39
*1646 FILLER_45_51
*1647 FILLER_45_55
*1648 FILLER_45_57
*1649 FILLER_45_69
*1650 FILLER_45_81
*1651 FILLER_45_93
*1652 FILLER_46_109
*1653 FILLER_46_121
*1654 FILLER_46_133
*1655 FILLER_46_139
*1656 FILLER_46_141
*1657 FILLER_46_153
*1658 FILLER_46_165
*1659 FILLER_46_177
*1660 FILLER_46_189
*1661 FILLER_46_195
*1662 FILLER_46_197
*1663 FILLER_46_20
*1664 FILLER_46_209
*1665 FILLER_46_221
*1666 FILLER_46_233
*1667 FILLER_46_245
*1668 FILLER_46_251
*1669 FILLER_46_253
*1670 FILLER_46_265
*1671 FILLER_46_277
*1672 FILLER_46_289
*1673 FILLER_46_29
*1674 FILLER_46_297
*1675 FILLER_46_3
*1676 FILLER_46_41
*1677 FILLER_46_53
*1678 FILLER_46_65
*1679 FILLER_46_77
*1680 FILLER_46_8
*1681 FILLER_46_83
*1682 FILLER_46_85
*1683 FILLER_46_97
*1684 FILLER_47_105
*1685 FILLER_47_111
*1686 FILLER_47_113
*1687 FILLER_47_125
*1688 FILLER_47_137