*SPEF "ieee 1481-1999"
*DESIGN "swalense_top"
*DATE "11:11:11 Fri 11 11, 1111"
*VENDOR "OpenRCX"
*PROGRAM "Parallel Extraction"
*VERSION "1.0"
*DESIGN_FLOW "NAME_SCOPE LOCAL" "PIN_CAP NONE"
*DIVIDER /
*DELIMITER :
*BUS_DELIMITER []
*T_UNIT 1 NS
*C_UNIT 1 PF
*R_UNIT 1 OHM
*L_UNIT 1 HENRY

*NAME_MAP
*1 io_in[0]
*2 io_in[1]
*3 io_in[2]
*4 io_in[3]
*5 io_in[4]
*6 io_in[5]
*7 io_in[6]
*8 io_in[7]
*9 io_out[0]
*10 io_out[1]
*11 io_out[2]
*12 io_out[3]
*13 io_out[4]
*14 io_out[5]
*15 io_out[6]
*16 io_out[7]
*19 _000_
*20 _001_
*21 _002_
*22 _003_
*23 _004_
*24 _005_
*25 _006_
*26 _007_
*27 _008_
*28 _009_
*29 _010_
*30 _011_
*31 _012_
*32 _013_
*33 _014_
*34 _015_
*35 _016_
*36 _017_
*37 _018_
*38 _019_
*39 _020_
*40 _021_
*41 _022_
*42 _023_
*43 _024_
*44 _025_
*45 _026_
*46 _027_
*47 _028_
*48 _029_
*49 _030_
*50 _031_
*51 _032_
*52 _033_
*53 _034_
*54 _035_
*55 _036_
*56 _037_
*57 _038_
*58 _039_
*59 _040_
*60 _041_
*61 _042_
*62 _043_
*63 _044_
*64 _045_
*65 _046_
*66 _047_
*67 _048_
*68 _049_
*69 _050_
*70 _051_
*71 _052_
*72 _053_
*73 _054_
*74 _055_
*75 _056_
*76 _057_
*77 _058_
*78 _059_
*79 _060_
*80 _061_
*81 _062_
*82 _063_
*83 _064_
*84 _065_
*85 _066_
*86 _067_
*87 _068_
*88 _069_
*89 _070_
*90 _071_
*91 _072_
*92 _073_
*93 _074_
*94 _075_
*95 _076_
*96 _077_
*97 _078_
*98 _079_
*99 _080_
*100 _081_
*101 _082_
*102 _083_
*103 _084_
*104 _085_
*105 _086_
*106 _087_
*107 _088_
*108 _089_
*109 _090_
*110 _091_
*111 _092_
*112 _093_
*113 _094_
*114 _095_
*115 _096_
*116 _097_
*117 _098_
*118 _099_
*119 _100_
*120 _101_
*121 _102_
*122 _103_
*123 _104_
*124 _105_
*125 _106_
*126 _107_
*127 _108_
*128 _109_
*129 _110_
*130 _111_
*131 _112_
*132 _113_
*133 _114_
*134 _115_
*135 _116_
*136 _117_
*137 _118_
*138 _119_
*139 _120_
*140 _121_
*141 _122_
*142 _123_
*143 _124_
*144 _125_
*145 _126_
*146 _127_
*147 _128_
*148 _129_
*149 _130_
*150 _131_
*151 _132_
*152 _133_
*153 _134_
*154 _135_
*155 _136_
*156 _137_
*157 _138_
*158 _139_
*159 _140_
*160 _141_
*161 _142_
*162 _143_
*163 _144_
*164 _145_
*165 _146_
*166 _147_
*167 _148_
*168 _149_
*169 _150_
*170 _151_
*171 _152_
*172 _153_
*173 _154_
*174 _155_
*175 _156_
*176 _157_
*177 _158_
*178 _159_
*179 _160_
*180 _161_
*181 _162_
*182 _163_
*183 _164_
*184 _165_
*185 _166_
*186 _167_
*187 _168_
*188 _169_
*189 _170_
*190 _171_
*191 _172_
*192 _173_
*193 _174_
*194 _175_
*195 _176_
*196 _177_
*197 _178_
*198 _179_
*199 _180_
*200 _181_
*201 _182_
*202 _183_
*203 _184_
*204 _185_
*205 _186_
*206 _187_
*207 _188_
*208 _189_
*209 _190_
*210 _191_
*211 _192_
*212 _193_
*213 _194_
*214 _195_
*215 _196_
*216 _197_
*217 _198_
*218 _199_
*219 _200_
*220 _201_
*221 _202_
*222 _203_
*223 _204_
*224 _205_
*225 _206_
*226 _207_
*227 _208_
*228 _209_
*229 _210_
*230 _211_
*231 _212_
*232 _213_
*233 _214_
*234 _215_
*235 _216_
*236 _217_
*237 _218_
*238 _219_
*239 _220_
*240 _221_
*241 _222_
*242 _223_
*243 _224_
*244 _225_
*245 _226_
*246 _227_
*247 _228_
*248 _229_
*249 _230_
*250 _231_
*251 _232_
*252 _233_
*253 _234_
*254 _235_
*255 _236_
*256 _237_
*257 _238_
*258 _239_
*259 _240_
*260 _241_
*261 _242_
*262 _243_
*263 _244_
*264 _245_
*265 _246_
*266 _247_
*267 _248_
*268 _249_
*269 _250_
*270 _251_
*271 _252_
*272 _253_
*273 _254_
*274 _255_
*275 _256_
*276 _257_
*277 _258_
*278 _259_
*279 _260_
*280 _261_
*281 _262_
*282 _263_
*283 _264_
*284 _265_
*285 _266_
*286 _267_
*287 _268_
*288 _269_
*289 _270_
*290 _271_
*291 _272_
*292 _273_
*293 _274_
*294 _275_
*295 _276_
*296 _277_
*297 _278_
*298 _279_
*299 _280_
*300 _281_
*301 _282_
*302 _283_
*303 _284_
*304 _285_
*305 _286_
*306 _287_
*307 _288_
*308 _289_
*309 _290_
*310 _291_
*311 _292_
*312 _293_
*313 _294_
*314 _295_
*315 _296_
*316 _297_
*317 _298_
*318 _299_
*319 _300_
*320 _301_
*321 _302_
*322 _303_
*323 _304_
*324 _305_
*325 _306_
*326 _307_
*327 _308_
*328 _309_
*329 _310_
*330 _311_
*331 _312_
*332 _313_
*333 _314_
*334 _315_
*335 _316_
*336 _317_
*337 _318_
*338 _319_
*339 _320_
*340 _321_
*341 _322_
*342 _323_
*343 _324_
*344 _325_
*345 _326_
*346 _327_
*347 _328_
*348 _329_
*349 _330_
*350 _331_
*351 _332_
*352 _333_
*353 _334_
*354 _335_
*355 _336_
*356 _337_
*357 _338_
*358 _339_
*359 _340_
*360 _341_
*361 _342_
*362 _343_
*363 _344_
*364 _345_
*365 _346_
*366 _347_
*367 _348_
*368 _349_
*369 _350_
*370 _351_
*371 _352_
*372 _353_
*373 _354_
*374 _355_
*375 _356_
*376 _357_
*377 _358_
*378 _359_
*379 _360_
*380 _361_
*381 _362_
*382 _363_
*383 _364_
*384 _365_
*385 _366_
*386 _367_
*387 _368_
*388 _369_
*389 _370_
*390 _371_
*391 _372_
*392 _373_
*393 _374_
*394 _375_
*395 _376_
*396 _377_
*397 _378_
*398 _379_
*399 _380_
*400 _381_
*401 _382_
*402 _383_
*403 _384_
*404 _385_
*405 _386_
*406 _387_
*407 _388_
*408 _389_
*409 _390_
*410 _391_
*411 _392_
*412 _393_
*413 _394_
*414 _395_
*415 _396_
*416 _397_
*417 _398_
*418 _399_
*419 _400_
*420 _401_
*421 _402_
*422 _403_
*423 _404_
*424 clknet_0_io_in[0]
*425 clknet_3_0__leaf_io_in[0]
*426 clknet_3_1__leaf_io_in[0]
*427 clknet_3_2__leaf_io_in[0]
*428 clknet_3_3__leaf_io_in[0]
*429 clknet_3_4__leaf_io_in[0]
*430 clknet_3_5__leaf_io_in[0]
*431 clknet_3_6__leaf_io_in[0]
*432 clknet_3_7__leaf_io_in[0]
*433 dev\.counter\$1\.value\[0\]
*434 dev\.counter\$1\.value\[1\]
*435 dev\.counter\$1\.value\[2\]
*436 dev\.counter\$1\.value\[3\]
*437 dev\.counter\$1\.value\[4\]
*438 dev\.counter\$1\.value\[5\]
*439 dev\.counter\$1\.value\[6\]
*440 dev\.counter\$1\.value\[7\]
*441 dev\.counter\$1\.wrap
*442 dev\.decoder\.debounce
*443 dev\.decoder\.direction
*444 dev\.decoder\.prev_channels\[0\]
*445 dev\.decoder\.prev_channels\[1\]
*446 dev\.decoder\.strobe_x4
*447 dev\.gearbox\.enable
*448 dev\.gearbox\.period\[0\]
*449 dev\.gearbox\.period\[1\]
*450 dev\.gearbox\.period\[2\]
*451 dev\.gearbox\.period\[3\]
*452 dev\.gearbox\.period\[4\]
*453 dev\.gearbox\.period\[5\]
*454 dev\.gearbox\.period\[6\]
*455 dev\.gearbox\.period\[7\]
*456 dev\.gearbox\.threshold\[0\]
*457 dev\.gearbox\.threshold\[1\]
*458 dev\.gearbox\.threshold\[2\]
*459 dev\.gearbox\.threshold\[3\]
*460 dev\.gearbox\.threshold\[4\]
*461 dev\.pwm\.counter\[0\]
*462 dev\.pwm\.counter\[1\]
*463 dev\.pwm\.counter\[2\]
*464 dev\.pwm\.counter\[3\]
*465 dev\.pwm\.counter\[4\]
*466 dev\.pwm\.counter\[5\]
*467 dev\.pwm\.counter\[6\]
*468 dev\.pwm\.counter\[7\]
*469 dev\.pwm\.pwm_signal
*470 dev\.serial_out\.data\[0\]
*471 dev\.serial_out\.data\[10\]
*472 dev\.serial_out\.data\[11\]
*473 dev\.serial_out\.data\[12\]
*474 dev\.serial_out\.data\[13\]
*475 dev\.serial_out\.data\[1\]
*476 dev\.serial_out\.data\[2\]
*477 dev\.serial_out\.data\[3\]
*478 dev\.serial_out\.data\[4\]
*479 dev\.serial_out\.data\[5\]
*480 dev\.serial_out\.data\[6\]
*481 dev\.serial_out\.data\[7\]
*482 dev\.serial_out\.data\[8\]
*483 dev\.serial_out\.data\[9\]
*484 dev\.serial_out\.i\[0\]
*485 dev\.serial_out\.i\[1\]
*486 dev\.serial_out\.i\[2\]
*487 dev\.serial_out\.i\[3\]
*488 dev\.serial_out\.start
*489 dev\.spi\.\$sample\$s\$cs\$sync\$1
*490 dev\.spi\.\$sample\$s\$sck\$sync\$1
*491 dev\.spi\.busy
*492 dev\.spi\.data\[10\]
*493 dev\.spi\.data\[11\]
*494 dev\.spi\.data\[12\]
*495 dev\.spi\.data\[13\]
*496 dev\.spi\.data\[14\]
*497 dev\.spi\.data\[15\]
*498 dev\.spi\.data\[16\]
*499 dev\.spi\.data\[17\]
*500 dev\.spi\.data\[18\]
*501 dev\.spi\.data\[19\]
*502 dev\.spi\.data\[20\]
*503 dev\.spi\.data\[21\]
*504 dev\.spi\.data\[22\]
*505 dev\.spi\.data\[23\]
*506 dev\.spi\.data\[24\]
*507 dev\.spi\.data\[25\]
*508 dev\.spi\.data\[26\]
*509 dev\.spi\.data\[27\]
*510 dev\.spi\.data\[28\]
*511 dev\.spi\.data\[29\]
*512 dev\.spi\.data\[30\]
*513 dev\.spi\.data\[31\]
*514 dev\.spi\.data\[3\]
*515 dev\.spi\.data\[4\]
*516 dev\.spi\.data\[5\]
*517 dev\.spi\.data\[6\]
*518 dev\.spi\.data\[7\]
*519 dev\.spi\.data\[8\]
*520 dev\.spi\.data\[9\]
*521 dev\.spi\.i\[0\]
*522 dev\.spi\.i\[1\]
*523 dev\.spi\.i\[2\]
*524 dev\.spi\.i\[3\]
*525 dev\.spi\.i\[4\]
*526 dev\.spi\.i\[5\]
*527 dev\.spi\.strobe
*528 net1
*529 net2
*530 net3
*531 net4
*532 net5
*533 net6
*534 net7
*535 ANTENNA_1
*536 ANTENNA_10
*537 ANTENNA_2
*538 ANTENNA_3
*539 ANTENNA_4
*540 ANTENNA_5
*541 ANTENNA_6
*542 ANTENNA_7
*543 ANTENNA_8
*544 ANTENNA_9
*545 FILLER_0_104
*546 FILLER_0_108
*547 FILLER_0_113
*548 FILLER_0_131
*549 FILLER_0_138
*550 FILLER_0_141
*551 FILLER_0_159
*552 FILLER_0_166
*553 FILLER_0_169
*554 FILLER_0_187
*555 FILLER_0_194
*556 FILLER_0_197
*557 FILLER_0_204
*558 FILLER_0_213
*559 FILLER_0_220
*560 FILLER_0_225
*561 FILLER_0_237
*562 FILLER_0_249
*563 FILLER_0_253
*564 FILLER_0_26
*565 FILLER_0_265
*566 FILLER_0_277
*567 FILLER_0_281
*568 FILLER_0_29
*569 FILLER_0_293
*570 FILLER_0_3
*571 FILLER_0_33
*572 FILLER_0_50
*573 FILLER_0_57
*574 FILLER_0_81
*575 FILLER_0_85
*576 FILLER_0_9
*577 FILLER_10_118
*578 FILLER_10_122
*579 FILLER_10_126
*580 FILLER_10_136
*581 FILLER_10_141
*582 FILLER_10_151
*583 FILLER_10_164
*584 FILLER_10_174
*585 FILLER_10_182
*586 FILLER_10_194
*587 FILLER_10_197
*588 FILLER_10_205
*589 FILLER_10_217
*590 FILLER_10_229
*591 FILLER_10_241
*592 FILLER_10_249
*593 FILLER_10_253
*594 FILLER_10_26
*595 FILLER_10_265
*596 FILLER_10_277
*597 FILLER_10_289
*598 FILLER_10_29
*599 FILLER_10_297
*600 FILLER_10_3
*601 FILLER_10_48
*602 FILLER_10_56
*603 FILLER_10_76
*604 FILLER_10_85
*605 FILLER_10_98
*606 FILLER_11_101
*607 FILLER_11_110
*608 FILLER_11_113
*609 FILLER_11_12
*610 FILLER_11_127
*611 FILLER_11_139
*612 FILLER_11_147
*613 FILLER_11_155
*614 FILLER_11_166
*615 FILLER_11_169
*616 FILLER_11_176
*617 FILLER_11_183
*618 FILLER_11_187
*619 FILLER_11_193
*620 FILLER_11_202
*621 FILLER_11_214
*622 FILLER_11_222
*623 FILLER_11_225
*624 FILLER_11_237
*625 FILLER_11_249
*626 FILLER_11_261
*627 FILLER_11_273
*628 FILLER_11_279
*629 FILLER_11_281
*630 FILLER_11_293
*631 FILLER_11_3
*632 FILLER_11_36
*633 FILLER_11_44
*634 FILLER_11_57
*635 FILLER_11_69
*636 FILLER_11_7
*637 FILLER_11_93
*638 FILLER_11_97
*639 FILLER_12_101
*640 FILLER_12_118
*641 FILLER_12_131
*642 FILLER_12_138
*643 FILLER_12_141
*644 FILLER_12_145
*645 FILLER_12_155
*646 FILLER_12_166
*647 FILLER_12_175
*648 FILLER_12_179
*649 FILLER_12_184
*650 FILLER_12_197
*651 FILLER_12_205
*652 FILLER_12_217
*653 FILLER_12_229
*654 FILLER_12_241
*655 FILLER_12_249
*656 FILLER_12_253
*657 FILLER_12_26
*658 FILLER_12_265
*659 FILLER_12_277
*660 FILLER_12_289
*661 FILLER_12_29
*662 FILLER_12_297
*663 FILLER_12_3
*664 FILLER_12_51
*665 FILLER_12_75
*666 FILLER_12_8
*667 FILLER_12_83
*668 FILLER_12_85
*669 FILLER_12_97
*670 FILLER_13_103
*671 FILLER_13_111
*672 FILLER_13_113
*673 FILLER_13_125
*674 FILLER_13_137
*675 FILLER_13_151
*676 FILLER_13_155
*677 FILLER_13_163
*678 FILLER_13_167
*679 FILLER_13_169
*680 FILLER_13_173
*681 FILLER_13_182
*682 FILLER_13_194
*683 FILLER_13_203
*684 FILLER_13_216
*685 FILLER_13_225
*686 FILLER_13_237
*687 FILLER_13_249
*688 FILLER_13_261
*689 FILLER_13_27
*690 FILLER_13_273
*691 FILLER_13_279
*692 FILLER_13_281
*693 FILLER_13_293
*694 FILLER_13_3
*695 FILLER_13_47
*696 FILLER_13_55
*697 FILLER_13_57
*698 FILLER_13_61
*699 FILLER_13_82
*700 FILLER_13_86
*701 FILLER_14_118
*702 FILLER_14_138
*703 FILLER_14_141
*704 FILLER_14_150
*705 FILLER_14_154
*706 FILLER_14_160
*707 FILLER_14_168
*708 FILLER_14_180
*709 FILLER_14_192
*710 FILLER_14_197
*711 FILLER_14_205
*712 FILLER_14_211
*713 FILLER_14_22
*714 FILLER_14_223
*715 FILLER_14_235
*716 FILLER_14_247
*717 FILLER_14_251
*718 FILLER_14_253
*719 FILLER_14_265
*720 FILLER_14_277
*721 FILLER_14_289
*722 FILLER_14_29
*723 FILLER_14_297
*724 FILLER_14_3
*725 FILLER_14_41
*726 FILLER_14_45
*727 FILLER_14_62
*728 FILLER_14_82
*729 FILLER_14_85
*730 FILLER_14_98
*731 FILLER_15_102
*732 FILLER_15_110
*733 FILLER_15_113
*734 FILLER_15_119
*735 FILLER_15_128
*736 FILLER_15_132
*737 FILLER_15_138
*738 FILLER_15_148
*739 FILLER_15_15
*740 FILLER_15_159
*741 FILLER_15_166
*742 FILLER_15_169
*743 FILLER_15_181
*744 FILLER_15_189
*745 FILLER_15_194
*746 FILLER_15_202
*747 FILLER_15_208
*748 FILLER_15_220
*749 FILLER_15_225
*750 FILLER_15_237
*751 FILLER_15_249
*752 FILLER_15_261
*753 FILLER_15_273
*754 FILLER_15_279
*755 FILLER_15_281
*756 FILLER_15_293
*757 FILLER_15_3
*758 FILLER_15_38
*759 FILLER_15_50
*760 FILLER_15_57
*761 FILLER_15_79
*762 FILLER_15_85
*763 FILLER_16_103
*764 FILLER_16_121
*765 FILLER_16_129
*766 FILLER_16_136
*767 FILLER_16_141
*768 FILLER_16_151
*769 FILLER_16_159
*770 FILLER_16_168
*771 FILLER_16_180
*772 FILLER_16_192
*773 FILLER_16_197
*774 FILLER_16_202
*775 FILLER_16_210
*776 FILLER_16_216
*777 FILLER_16_22
*778 FILLER_16_228
*779 FILLER_16_240
*780 FILLER_16_253
*781 FILLER_16_265
*782 FILLER_16_277
*783 FILLER_16_289
*784 FILLER_16_29
*785 FILLER_16_297
*786 FILLER_16_3
*787 FILLER_16_48
*788 FILLER_16_60
*789 FILLER_16_64
*790 FILLER_16_82
*791 FILLER_16_85
*792 FILLER_16_97
*793 FILLER_17_102
*794 FILLER_17_110
*795 FILLER_17_113
*796 FILLER_17_129
*797 FILLER_17_138
*798 FILLER_17_15
*799 FILLER_17_152
*800 FILLER_17_160
*801 FILLER_17_169
*802 FILLER_17_173
*803 FILLER_17_179
*804 FILLER_17_196
*805 FILLER_17_204
*806 FILLER_17_211
*807 FILLER_17_223
*808 FILLER_17_225
*809 FILLER_17_237
*810 FILLER_17_249
*811 FILLER_17_261
*812 FILLER_17_273
*813 FILLER_17_279
*814 FILLER_17_281
*815 FILLER_17_293
*816 FILLER_17_3
*817 FILLER_17_36
*818 FILLER_17_48
*819 FILLER_17_57
*820 FILLER_17_65
*821 FILLER_17_82
*822 FILLER_18_107
*823 FILLER_18_111
*824 FILLER_18_116
*825 FILLER_18_125
*826 FILLER_18_138
*827 FILLER_18_141
*828 FILLER_18_151
*829 FILLER_18_161
*830 FILLER_18_165
*831 FILLER_18_169
*832 FILLER_18_176
*833 FILLER_18_183
*834 FILLER_18_195
*835 FILLER_18_197
*836 FILLER_18_202
*837 FILLER_18_214
*838 FILLER_18_22
*839 FILLER_18_226
*840 FILLER_18_238
*841 FILLER_18_250
*842 FILLER_18_253
*843 FILLER_18_265
*844 FILLER_18_277
*845 FILLER_18_289
*846 FILLER_18_29
*847 FILLER_18_297
*848 FILLER_18_3
*849 FILLER_18_34
*850 FILLER_18_62
*851 FILLER_18_82
*852 FILLER_18_85
*853 FILLER_19_110
*854 FILLER_19_113
*855 FILLER_19_126
*856 FILLER_19_137
*857 FILLER_19_145
*858 FILLER_19_153
*859 FILLER_19_162
*860 FILLER_19_169
*861 FILLER_19_174
*862 FILLER_19_180
*863 FILLER_19_193
*864 FILLER_19_200
*865 FILLER_19_212
*866 FILLER_19_225
*867 FILLER_19_237
*868 FILLER_19_24
*869 FILLER_19_249
*870 FILLER_19_261
*871 FILLER_19_273
*872 FILLER_19_279
*873 FILLER_19_281
*874 FILLER_19_293
*875 FILLER_19_3
*876 FILLER_19_52
*877 FILLER_19_57
*878 FILLER_19_69
*879 FILLER_19_89
*880 FILLER_1_100
*881 FILLER_1_109
*882 FILLER_1_113
*883 FILLER_1_131
*884 FILLER_1_151
*885 FILLER_1_162
*886 FILLER_1_169
*887 FILLER_1_180
*888 FILLER_1_187
*889 FILLER_1_198
*890 FILLER_1_207
*891 FILLER_1_214
*892 FILLER_1_221
*893 FILLER_1_225
*894 FILLER_1_237
*895 FILLER_1_249
*896 FILLER_1_261
*897 FILLER_1_273
*898 FILLER_1_279
*899 FILLER_1_281
*900 FILLER_1_293
*901 FILLER_1_3
*902 FILLER_1_31
*903 FILLER_1_52
*904 FILLER_1_57
*905 FILLER_1_62
*906 FILLER_1_71
*907 FILLER_1_75
*908 FILLER_1_94
*909 FILLER_20_117
*910 FILLER_20_129
*911 FILLER_20_138
*912 FILLER_20_141
*913 FILLER_20_146
*914 FILLER_20_150
*915 FILLER_20_159
*916 FILLER_20_166
*917 FILLER_20_178
*918 FILLER_20_190
*919 FILLER_20_197
*920 FILLER_20_206
*921 FILLER_20_216
*922 FILLER_20_228
*923 FILLER_20_240
*924 FILLER_20_253
*925 FILLER_20_26
*926 FILLER_20_265
*927 FILLER_20_277
*928 FILLER_20_289
*929 FILLER_20_29
*930 FILLER_20_297
*931 FILLER_20_3
*932 FILLER_20_47
*933 FILLER_20_53
*934 FILLER_20_70
*935 FILLER_20_82
*936 FILLER_20_85
*937 FILLER_20_9
*938 FILLER_20_97
*939 FILLER_21_105
*940 FILLER_21_110
*941 FILLER_21_113
*942 FILLER_21_123
*943 FILLER_21_130
*944 FILLER_21_134
*945 FILLER_21_140
*946 FILLER_21_151
*947 FILLER_21_161
*948 FILLER_21_167
*949 FILLER_21_169
*950 FILLER_21_178
*951 FILLER_21_190
*952 FILLER_21_202
*953 FILLER_21_208
*954 FILLER_21_21
*955 FILLER_21_220
*956 FILLER_21_225
*957 FILLER_21_237
*958 FILLER_21_249
*959 FILLER_21_261
*960 FILLER_21_273
*961 FILLER_21_279
*962 FILLER_21_281
*963 FILLER_21_293
*964 FILLER_21_3
*965 FILLER_21_33
*966 FILLER_21_52
*967 FILLER_21_57
*968 FILLER_21_62
*969 FILLER_21_70
*970 FILLER_21_93
*971 FILLER_22_117
*972 FILLER_22_129
*973 FILLER_22_138
*974 FILLER_22_141
*975 FILLER_22_148
*976 FILLER_22_156
*977 FILLER_22_163
*978 FILLER_22_175
*979 FILLER_22_186
*980 FILLER_22_194
*981 FILLER_22_197
*982 FILLER_22_209
*983 FILLER_22_221
*984 FILLER_22_233
*985 FILLER_22_245
*986 FILLER_22_251
*987 FILLER_22_253
*988 FILLER_22_26
*989 FILLER_22_265
*990 FILLER_22_277
*991 FILLER_22_289
*992 FILLER_22_29
*993 FILLER_22_297
*994 FILLER_22_3
*995 FILLER_22_48
*996 FILLER_22_56
*997 FILLER_22_73
*998 FILLER_22_81
*999 FILLER_22_85
*1000 FILLER_22_9
*1001 FILLER_22_97
*1002 FILLER_23_105
*1003 FILLER_23_111
*1004 FILLER_23_113
*1005 FILLER_23_118
*1006 FILLER_23_131
*1007 FILLER_23_140
*1008 FILLER_23_149
*1009 FILLER_23_15
*1010 FILLER_23_161
*1011 FILLER_23_167
*1012 FILLER_23_169
*1013 FILLER_23_176
*1014 FILLER_23_187
*1015 FILLER_23_199
*1016 FILLER_23_21
*1017 FILLER_23_211
*1018 FILLER_23_223
*1019 FILLER_23_225
*1020 FILLER_23_237
*1021 FILLER_23_24
*1022 FILLER_23_249
*1023 FILLER_23_261
*1024 FILLER_23_273
*1025 FILLER_23_279
*1026 FILLER_23_281
*1027 FILLER_23_293
*1028 FILLER_23_3
*1029 FILLER_23_42
*1030 FILLER_23_50
*1031 FILLER_23_54
*1032 FILLER_23_57
*1033 FILLER_23_78
*1034 FILLER_23_86
*1035 FILLER_24_117
*1036 FILLER_24_126
*1037 FILLER_24_135
*1038 FILLER_24_139
*1039 FILLER_24_141
*1040 FILLER_24_145
*1041 FILLER_24_151
*1042 FILLER_24_159
*1043 FILLER_24_166
*1044 FILLER_24_170
*1045 FILLER_24_176
*1046 FILLER_24_188
*1047 FILLER_24_197
*1048 FILLER_24_20
*1049 FILLER_24_209
*1050 FILLER_24_221
*1051 FILLER_24_233
*1052 FILLER_24_245
*1053 FILLER_24_251
*1054 FILLER_24_253
*1055 FILLER_24_265
*1056 FILLER_24_277
*1057 FILLER_24_289
*1058 FILLER_24_29
*1059 FILLER_24_297
*1060 FILLER_24_3
*1061 FILLER_24_34
*1062 FILLER_24_42
*1063 FILLER_24_52
*1064 FILLER_24_66
*1065 FILLER_24_78
*1066 FILLER_24_8
*1067 FILLER_24_85
*1068 FILLER_24_97
*1069 FILLER_25_109
*1070 FILLER_25_113
*1071 FILLER_25_123
*1072 FILLER_25_139
*1073 FILLER_25_145
*1074 FILLER_25_15
*1075 FILLER_25_153
*1076 FILLER_25_165
*1077 FILLER_25_169
*1078 FILLER_25_177
*1079 FILLER_25_185
*1080 FILLER_25_200
*1081 FILLER_25_212
*1082 FILLER_25_225
*1083 FILLER_25_23
*1084 FILLER_25_237
*1085 FILLER_25_249
*1086 FILLER_25_261
*1087 FILLER_25_273
*1088 FILLER_25_279
*1089 FILLER_25_281
*1090 FILLER_25_293
*1091 FILLER_25_3
*1092 FILLER_25_31
*1093 FILLER_25_41
*1094 FILLER_25_54
*1095 FILLER_25_57
*1096 FILLER_25_65
*1097 FILLER_25_73
*1098 FILLER_25_91
*1099 FILLER_26_105
*1100 FILLER_26_117
*1101 FILLER_26_130
*1102 FILLER_26_138
*1103 FILLER_26_141
*1104 FILLER_26_149
*1105 FILLER_26_161
*1106 FILLER_26_173
*1107 FILLER_26_185
*1108 FILLER_26_193
*1109 FILLER_26_197
*1110 FILLER_26_209
*1111 FILLER_26_221
*1112 FILLER_26_23
*1113 FILLER_26_233
*1114 FILLER_26_245
*1115 FILLER_26_251
*1116 FILLER_26_253
*1117 FILLER_26_265
*1118 FILLER_26_27
*1119 FILLER_26_277
*1120 FILLER_26_289
*1121 FILLER_26_29
*1122 FILLER_26_297
*1123 FILLER_26_3
*1124 FILLER_26_40
*1125 FILLER_26_48
*1126 FILLER_26_56
*1127 FILLER_26_64
*1128 FILLER_26_8
*1129 FILLER_26_81
*1130 FILLER_26_85
*1131 FILLER_26_89
*1132 FILLER_26_97
*1133 FILLER_27_108
*1134 FILLER_27_113
*1135 FILLER_27_123
*1136 FILLER_27_130
*1137 FILLER_27_137
*1138 FILLER_27_149
*1139 FILLER_27_157
*1140 FILLER_27_161
*1141 FILLER_27_167
*1142 FILLER_27_169
*1143 FILLER_27_181
*1144 FILLER_27_19
*1145 FILLER_27_193
*1146 FILLER_27_205
*1147 FILLER_27_218
*1148 FILLER_27_225
*1149 FILLER_27_237
*1150 FILLER_27_249
*1151 FILLER_27_261
*1152 FILLER_27_273
*1153 FILLER_27_279
*1154 FILLER_27_281
*1155 FILLER_27_293
*1156 FILLER_27_3
*1157 FILLER_27_31
*1158 FILLER_27_38
*1159 FILLER_27_51
*1160 FILLER_27_55
*1161 FILLER_27_57
*1162 FILLER_27_65
*1163 FILLER_27_76
*1164 FILLER_27_88
*1165 FILLER_27_9
*1166 FILLER_27_96
*1167 FILLER_28_104
*1168 FILLER_28_11
*1169 FILLER_28_113
*1170 FILLER_28_120
*1171 FILLER_28_131
*1172 FILLER_28_138
*1173 FILLER_28_141
*1174 FILLER_28_153
*1175 FILLER_28_165
*1176 FILLER_28_177
*1177 FILLER_28_189
*1178 FILLER_28_195
*1179 FILLER_28_197
*1180 FILLER_28_209
*1181 FILLER_28_221
*1182 FILLER_28_233
*1183 FILLER_28_245
*1184 FILLER_28_251
*1185 FILLER_28_253
*1186 FILLER_28_26
*1187 FILLER_28_265
*1188 FILLER_28_277
*1189 FILLER_28_289
*1190 FILLER_28_29
*1191 FILLER_28_297
*1192 FILLER_28_3
*1193 FILLER_28_40
*1194 FILLER_28_44
*1195 FILLER_28_54
*1196 FILLER_28_62
*1197 FILLER_28_69
*1198 FILLER_28_81
*1199 FILLER_28_85
*1200 FILLER_28_96
*1201 FILLER_29_104
*1202 FILLER_29_113
*1203 FILLER_29_123
*1204 FILLER_29_127
*1205 FILLER_29_136
*1206 FILLER_29_14
*1207 FILLER_29_146
*1208 FILLER_29_163
*1209 FILLER_29_167
*1210 FILLER_29_169
*1211 FILLER_29_176
*1212 FILLER_29_188
*1213 FILLER_29_200
*1214 FILLER_29_212
*1215 FILLER_29_225
*1216 FILLER_29_237
*1217 FILLER_29_24
*1218 FILLER_29_249
*1219 FILLER_29_261
*1220 FILLER_29_273
*1221 FILLER_29_279
*1222 FILLER_29_28
*1223 FILLER_29_281
*1224 FILLER_29_293
*1225 FILLER_29_3
*1226 FILLER_29_38
*1227 FILLER_29_47
*1228 FILLER_29_54
*1229 FILLER_29_57
*1230 FILLER_29_69
*1231 FILLER_29_85
*1232 FILLER_29_93
*1233 FILLER_2_104
*1234 FILLER_2_124
*1235 FILLER_2_137
*1236 FILLER_2_141
*1237 FILLER_2_159
*1238 FILLER_2_170
*1239 FILLER_2_181
*1240 FILLER_2_191
*1241 FILLER_2_195
*1242 FILLER_2_197
*1243 FILLER_2_204
*1244 FILLER_2_213
*1245 FILLER_2_22
*1246 FILLER_2_222
*1247 FILLER_2_234
*1248 FILLER_2_246
*1249 FILLER_2_253
*1250 FILLER_2_26
*1251 FILLER_2_265
*1252 FILLER_2_277
*1253 FILLER_2_289
*1254 FILLER_2_29
*1255 FILLER_2_297
*1256 FILLER_2_3
*1257 FILLER_2_34
*1258 FILLER_2_41
*1259 FILLER_2_59
*1260 FILLER_2_63
*1261 FILLER_2_82
*1262 FILLER_2_85
*1263 FILLER_30_102
*1264 FILLER_30_11
*1265 FILLER_30_113
*1266 FILLER_30_121
*1267 FILLER_30_127
*1268 FILLER_30_134
*1269 FILLER_30_141
*1270 FILLER_30_153
*1271 FILLER_30_16
*1272 FILLER_30_165
*1273 FILLER_30_177
*1274 FILLER_30_189
*1275 FILLER_30_195
*1276 FILLER_30_197
*1277 FILLER_30_209
*1278 FILLER_30_221
*1279 FILLER_30_233
*1280 FILLER_30_245
*1281 FILLER_30_25
*1282 FILLER_30_251
*1283 FILLER_30_253
*1284 FILLER_30_265
*1285 FILLER_30_277
*1286 FILLER_30_289
*1287 FILLER_30_29
*1288 FILLER_30_297
*1289 FILLER_30_3
*1290 FILLER_30_35
*1291 FILLER_30_39
*1292 FILLER_30_52
*1293 FILLER_30_58
*1294 FILLER_30_66
*1295 FILLER_30_73
*1296 FILLER_30_81
*1297 FILLER_30_85
*1298 FILLER_30_93
*1299 FILLER_31_104
*1300 FILLER_31_110
*1301 FILLER_31_113
*1302 FILLER_31_126
*1303 FILLER_31_138
*1304 FILLER_31_149
*1305 FILLER_31_161
*1306 FILLER_31_167
*1307 FILLER_31_169
*1308 FILLER_31_17
*1309 FILLER_31_181
*1310 FILLER_31_193
*1311 FILLER_31_205
*1312 FILLER_31_217
*1313 FILLER_31_223
*1314 FILLER_31_225
*1315 FILLER_31_237
*1316 FILLER_31_24
*1317 FILLER_31_249
*1318 FILLER_31_261
*1319 FILLER_31_273
*1320 FILLER_31_279
*1321 FILLER_31_281
*1322 FILLER_31_293
*1323 FILLER_31_3
*1324 FILLER_31_36
*1325 FILLER_31_44
*1326 FILLER_31_53
*1327 FILLER_31_57
*1328 FILLER_31_74
*1329 FILLER_31_86
*1330 FILLER_31_96
*1331 FILLER_32_10
*1332 FILLER_32_109
*1333 FILLER_32_118
*1334 FILLER_32_125
*1335 FILLER_32_135
*1336 FILLER_32_139
*1337 FILLER_32_141
*1338 FILLER_32_153
*1339 FILLER_32_165
*1340 FILLER_32_177
*1341 FILLER_32_189
*1342 FILLER_32_195
*1343 FILLER_32_197
*1344 FILLER_32_209
*1345 FILLER_32_21
*1346 FILLER_32_221
*1347 FILLER_32_233
*1348 FILLER_32_245
*1349 FILLER_32_251
*1350 FILLER_32_253
*1351 FILLER_32_265
*1352 FILLER_32_27
*1353 FILLER_32_277
*1354 FILLER_32_289
*1355 FILLER_32_29
*1356 FILLER_32_297
*1357 FILLER_32_3
*1358 FILLER_32_35
*1359 FILLER_32_48
*1360 FILLER_32_56
*1361 FILLER_32_65
*1362 FILLER_32_80
*1363 FILLER_32_85
*1364 FILLER_32_91
*1365 FILLER_32_98
*1366 FILLER_33_100
*1367 FILLER_33_11
*1368 FILLER_33_113
*1369 FILLER_33_119
*1370 FILLER_33_124
*1371 FILLER_33_131
*1372 FILLER_33_143
*1373 FILLER_33_155
*1374 FILLER_33_167
*1375 FILLER_33_169
*1376 FILLER_33_17
*1377 FILLER_33_181
*1378 FILLER_33_193
*1379 FILLER_33_205
*1380 FILLER_33_217
*1381 FILLER_33_223
*1382 FILLER_33_225
*1383 FILLER_33_23
*1384 FILLER_33_237
*1385 FILLER_33_249
*1386 FILLER_33_261
*1387 FILLER_33_273
*1388 FILLER_33_279
*1389 FILLER_33_281
*1390 FILLER_33_293
*1391 FILLER_33_3
*1392 FILLER_33_31
*1393 FILLER_33_37
*1394 FILLER_33_46
*1395 FILLER_33_53
*1396 FILLER_33_57
*1397 FILLER_33_64
*1398 FILLER_33_75
*1399 FILLER_33_88
*1400 FILLER_34_102
*1401 FILLER_34_114
*1402 FILLER_34_120
*1403 FILLER_34_132
*1404 FILLER_34_141
*1405 FILLER_34_148
*1406 FILLER_34_16
*1407 FILLER_34_160
*1408 FILLER_34_166
*1409 FILLER_34_178
*1410 FILLER_34_190
*1411 FILLER_34_197
*1412 FILLER_34_20
*1413 FILLER_34_209
*1414 FILLER_34_221
*1415 FILLER_34_233
*1416 FILLER_34_245
*1417 FILLER_34_25
*1418 FILLER_34_251
*1419 FILLER_34_253
*1420 FILLER_34_265
*1421 FILLER_34_277
*1422 FILLER_34_289
*1423 FILLER_34_29
*1424 FILLER_34_297
*1425 FILLER_34_3
*1426 FILLER_34_40
*1427 FILLER_34_44
*1428 FILLER_34_52
*1429 FILLER_34_60
*1430 FILLER_34_71
*1431 FILLER_34_83
*1432 FILLER_34_85
*1433 FILLER_34_9
*1434 FILLER_34_90
*1435 FILLER_35_10
*1436 FILLER_35_100
*1437 FILLER_35_113
*1438 FILLER_35_125
*1439 FILLER_35_137
*1440 FILLER_35_149
*1441 FILLER_35_161
*1442 FILLER_35_167
*1443 FILLER_35_169
*1444 FILLER_35_181
*1445 FILLER_35_19
*1446 FILLER_35_193
*1447 FILLER_35_205
*1448 FILLER_35_217
*1449 FILLER_35_223
*1450 FILLER_35_225
*1451 FILLER_35_237
*1452 FILLER_35_249
*1453 FILLER_35_261
*1454 FILLER_35_273
*1455 FILLER_35_279
*1456 FILLER_35_281
*1457 FILLER_35_293
*1458 FILLER_35_3
*1459 FILLER_35_32
*1460 FILLER_35_44
*1461 FILLER_35_50
*1462 FILLER_35_54
*1463 FILLER_35_57
*1464 FILLER_35_63
*1465 FILLER_35_71
*1466 FILLER_35_76
*1467 FILLER_35_88
*1468 FILLER_36_10
*1469 FILLER_36_108
*1470 FILLER_36_120
*1471 FILLER_36_132
*1472 FILLER_36_141
*1473 FILLER_36_153
*1474 FILLER_36_165
*1475 FILLER_36_17
*1476 FILLER_36_177
*1477 FILLER_36_189
*1478 FILLER_36_195
*1479 FILLER_36_197
*1480 FILLER_36_209
*1481 FILLER_36_221
*1482 FILLER_36_233
*1483 FILLER_36_245
*1484 FILLER_36_25
*1485 FILLER_36_251
*1486 FILLER_36_253
*1487 FILLER_36_265
*1488 FILLER_36_277
*1489 FILLER_36_289
*1490 FILLER_36_29
*1491 FILLER_36_297
*1492 FILLER_36_3
*1493 FILLER_36_41
*1494 FILLER_36_49
*1495 FILLER_36_55
*1496 FILLER_36_62
*1497 FILLER_36_70
*1498 FILLER_36_77
*1499 FILLER_36_83
*1500 FILLER_36_85
*1501 FILLER_36_96
*1502 FILLER_37_10
*1503 FILLER_37_103
*1504 FILLER_37_111
*1505 FILLER_37_113
*1506 FILLER_37_122
*1507 FILLER_37_134
*1508 FILLER_37_146
*1509 FILLER_37_158
*1510 FILLER_37_166
*1511 FILLER_37_169
*1512 FILLER_37_181
*1513 FILLER_37_193
*1514 FILLER_37_20
*1515 FILLER_37_205
*1516 FILLER_37_217
*1517 FILLER_37_223
*1518 FILLER_37_225
*1519 FILLER_37_237
*1520 FILLER_37_249
*1521 FILLER_37_261
*1522 FILLER_37_273
*1523 FILLER_37_279
*1524 FILLER_37_28
*1525 FILLER_37_281
*1526 FILLER_37_293
*1527 FILLER_37_3
*1528 FILLER_37_36
*1529 FILLER_37_44
*1530 FILLER_37_54
*1531 FILLER_37_57
*1532 FILLER_37_65
*1533 FILLER_37_69
*1534 FILLER_37_78
*1535 FILLER_37_86
*1536 FILLER_37_96
*1537 FILLER_38_109
*1538 FILLER_38_12
*1539 FILLER_38_121
*1540 FILLER_38_133
*1541 FILLER_38_139
*1542 FILLER_38_141
*1543 FILLER_38_153
*1544 FILLER_38_165
*1545 FILLER_38_177
*1546 FILLER_38_189
*1547 FILLER_38_195
*1548 FILLER_38_197
*1549 FILLER_38_209
*1550 FILLER_38_221
*1551 FILLER_38_233
*1552 FILLER_38_245
*1553 FILLER_38_251
*1554 FILLER_38_253
*1555 FILLER_38_26
*1556 FILLER_38_265
*1557 FILLER_38_277
*1558 FILLER_38_289
*1559 FILLER_38_29
*1560 FILLER_38_297
*1561 FILLER_38_3
*1562 FILLER_38_33
*1563 FILLER_38_37
*1564 FILLER_38_49
*1565 FILLER_38_63
*1566 FILLER_38_71
*1567 FILLER_38_82
*1568 FILLER_38_85
*1569 FILLER_38_97
*1570 FILLER_39_110
*1571 FILLER_39_113
*1572 FILLER_39_125
*1573 FILLER_39_137
*1574 FILLER_39_149
*1575 FILLER_39_16
*1576 FILLER_39_161
*1577 FILLER_39_167
*1578 FILLER_39_169
*1579 FILLER_39_181
*1580 FILLER_39_193
*1581 FILLER_39_205
*1582 FILLER_39_217
*1583 FILLER_39_223
*1584 FILLER_39_225
*1585 FILLER_39_237
*1586 FILLER_39_249
*1587 FILLER_39_261
*1588 FILLER_39_273
*1589 FILLER_39_279
*1590 FILLER_39_281
*1591 FILLER_39_29
*1592 FILLER_39_293
*1593 FILLER_39_3
*1594 FILLER_39_36
*1595 FILLER_39_44
*1596 FILLER_39_50
*1597 FILLER_39_57
*1598 FILLER_39_63
*1599 FILLER_39_70
*1600 FILLER_39_78
*1601 FILLER_39_85
*1602 FILLER_39_9
*1603 FILLER_39_91
*1604 FILLER_39_98
*1605 FILLER_3_101
*1606 FILLER_3_110
*1607 FILLER_3_113
*1608 FILLER_3_131
*1609 FILLER_3_15
*1610 FILLER_3_151
*1611 FILLER_3_164
*1612 FILLER_3_169
*1613 FILLER_3_178
*1614 FILLER_3_189
*1615 FILLER_3_201
*1616 FILLER_3_211
*1617 FILLER_3_218
*1618 FILLER_3_225
*1619 FILLER_3_237
*1620 FILLER_3_249
*1621 FILLER_3_261
*1622 FILLER_3_273
*1623 FILLER_3_279
*1624 FILLER_3_281
*1625 FILLER_3_293
*1626 FILLER_3_3
*1627 FILLER_3_36
*1628 FILLER_3_46
*1629 FILLER_3_50
*1630 FILLER_3_54
*1631 FILLER_3_57
*1632 FILLER_3_61
*1633 FILLER_3_69
*1634 FILLER_3_93
*1635 FILLER_40_107
*1636 FILLER_40_119
*1637 FILLER_40_131
*1638 FILLER_40_139
*1639 FILLER_40_141
*1640 FILLER_40_153
*1641 FILLER_40_165
*1642 FILLER_40_177
*1643 FILLER_40_189
*1644 FILLER_40_195
*1645 FILLER_40_197
*1646 FILLER_40_20
*1647 FILLER_40_209
*1648 FILLER_40_221
*1649 FILLER_40_233
*1650 FILLER_40_245
*1651 FILLER_40_251
*1652 FILLER_40_253
*1653 FILLER_40_265
*1654 FILLER_40_277
*1655 FILLER_40_289
*1656 FILLER_40_29
*1657 FILLER_40_297
*1658 FILLER_40_3
*1659 FILLER_40_38
*1660 FILLER_40_49
*1661 FILLER_40_56
*1662 FILLER_40_60
*1663 FILLER_40_67
*1664 FILLER_40_82
*1665 FILLER_40_85
*1666 FILLER_40_95
*1667 FILLER_41_107
*1668 FILLER_41_111
*1669 FILLER_41_113
*1670 FILLER_41_125
*1671 FILLER_41_137
*1672 FILLER_41_149
*1673 FILLER_41_161
*1674 FILLER_41_167
*1675 FILLER_41_169
*1676 FILLER_41_17
*1677 FILLER_41_181
*1678 FILLER_41_193
*1679 FILLER_41_205
*1680 FILLER_41_217
*1681 FILLER_41_223
*1682 FILLER_41_225
*1683 FILLER_41_23
*1684 FILLER_41_237
*1685 FILLER_41_249
*1686 FILLER_41_261
*1687 FILLER_41_273