*SPEF "ieee 1481-1999"
*DESIGN "thezoq2_yafpga"
*DATE "11:11:11 Fri 11 11, 1111"
*VENDOR "OpenRCX"
*PROGRAM "Parallel Extraction"
*VERSION "1.0"
*DESIGN_FLOW "NAME_SCOPE LOCAL" "PIN_CAP NONE"
*DIVIDER /
*DELIMITER :
*BUS_DELIMITER []
*T_UNIT 1 NS
*C_UNIT 1 PF
*R_UNIT 1 OHM
*L_UNIT 1 HENRY

*NAME_MAP
*1 io_in[0]
*2 io_in[1]
*3 io_in[2]
*4 io_in[3]
*5 io_in[4]
*6 io_in[5]
*7 io_in[6]
*8 io_in[7]
*9 net20
*10 io_out[1]
*11 io_out[2]
*12 io_out[3]
*13 net21
*14 net22
*15 net23
*16 net24
*19 _000_
*20 _001_
*21 _002_
*22 _003_
*23 _004_
*24 _005_
*25 _006_
*26 _007_
*27 _008_
*28 _009_
*29 _010_
*30 _011_
*31 _012_
*32 _013_
*33 _014_
*34 _015_
*35 _016_
*36 _017_
*37 _018_
*38 _019_
*39 _020_
*40 _021_
*41 _022_
*42 _023_
*43 _024_
*44 _025_
*45 _026_
*46 _027_
*47 _028_
*48 _029_
*49 _030_
*50 _031_
*51 _032_
*52 _033_
*53 _034_
*54 _035_
*55 _036_
*56 _037_
*57 _038_
*58 _039_
*59 _040_
*60 _041_
*61 _042_
*62 _043_
*63 _044_
*64 _045_
*65 _046_
*66 _047_
*67 _048_
*68 _049_
*69 _050_
*70 _051_
*71 _052_
*72 _053_
*73 _054_
*74 _055_
*75 _056_
*76 _057_
*77 _058_
*78 _059_
*79 _060_
*80 _061_
*81 _062_
*82 _063_
*83 _064_
*84 _065_
*85 _066_
*86 _067_
*87 _068_
*88 _069_
*89 _070_
*90 _071_
*91 _072_
*92 _073_
*93 _074_
*94 _075_
*95 _076_
*96 _077_
*97 _078_
*98 _079_
*99 _080_
*100 _081_
*101 _082_
*102 _083_
*103 _084_
*104 _085_
*105 _086_
*106 _087_
*107 _088_
*108 _089_
*109 _090_
*110 _091_
*111 _092_
*112 _093_
*113 _094_
*114 _095_
*115 _096_
*116 _097_
*117 _098_
*118 _099_
*119 _100_
*120 _101_
*121 _102_
*122 _103_
*123 _104_
*124 _105_
*125 _106_
*126 _107_
*127 _108_
*128 _109_
*129 _110_
*130 _111_
*131 _112_
*132 _113_
*133 _114_
*134 _115_
*135 _116_
*136 _117_
*137 _118_
*138 _119_
*139 _120_
*140 _121_
*141 _122_
*142 _123_
*143 _124_
*144 _125_
*145 _126_
*146 _127_
*147 _128_
*148 _129_
*149 _130_
*150 _131_
*151 _132_
*152 _133_
*153 _134_
*154 _135_
*155 _136_
*156 _137_
*157 _138_
*158 _139_
*159 _140_
*160 _141_
*161 _142_
*162 _143_
*163 _144_
*164 _145_
*165 _146_
*166 _147_
*167 _148_
*168 _149_
*169 _150_
*170 _151_
*171 _152_
*172 _153_
*173 _154_
*174 _155_
*175 _156_
*176 _157_
*177 _158_
*178 _159_
*179 _160_
*180 _161_
*181 _162_
*182 _163_
*183 _164_
*184 _165_
*185 _166_
*186 _167_
*187 _168_
*188 _169_
*189 _170_
*190 _171_
*191 _172_
*192 _173_
*193 _174_
*194 _175_
*195 _176_
*196 _177_
*197 _178_
*198 _179_
*199 _180_
*200 _181_
*201 _182_
*202 _183_
*203 _184_
*204 _185_
*205 _186_
*206 _187_
*207 _188_
*208 _189_
*209 _190_
*210 _191_
*211 _192_
*212 _193_
*213 _194_
*214 _195_
*215 _196_
*216 _197_
*217 _198_
*218 _199_
*219 _200_
*220 _201_
*221 _202_
*222 clknet_0_io_in[0]
*223 clknet_1_0__leaf_io_in[0]
*224 clknet_1_1__leaf_io_in[0]
*225 main\._e_292_i\._e_203_i\._e_459
*226 main\._e_292_i\._e_203_i\._e_468_i\._e_436_i\._e_30
*227 main\._e_292_i\._e_203_i\._e_468_i\._e_436_i\._e_36
*228 main\._e_292_i\._e_203_i\._e_471
*229 main\._e_292_i\._e_203_i\._e_480_i\._e_436_i\._e_36
*230 main\._e_292_i\._e_203_i\._e_483
*231 main\._e_292_i\._e_203_i\._e_494_i\._e_436_i\._e_36
*232 main\._e_292_i\._e_203_i\._e_499_i\._e_36
*233 main\._e_292_i\._e_219_i\._e_151_i\._e_126_i\._e_325_i\._e_36
*234 main\._e_292_i\._e_219_i\._e_151_i\._e_126_i\._e_330_i\._e_36
*235 main\._e_292_i\._e_219_i\._e_151_i\._e_126_i\._e_335_i\._e_36
*236 main\._e_292_i\._e_219_i\._e_151_i\._e_126_i\._e_362
*237 main\._e_292_i\._e_219_i\._e_151_i\._e_126_i\._e_370
*238 main\._e_292_i\._e_219_i\._e_151_i\._e_126_i\._e_378
*239 main\._e_292_i\._e_219_i\._e_151_i\._e_132_i\._e_325_i\._e_36
*240 main\._e_292_i\._e_219_i\._e_151_i\._e_132_i\._e_330_i\._e_36
*241 main\._e_292_i\._e_219_i\._e_151_i\._e_132_i\._e_335_i\._e_36
*242 main\._e_292_i\._e_219_i\._e_151_i\._e_139_i\._e_50_i\._e_36
*243 main\._e_292_i\._e_219_i\._e_151_i\._e_139_i\._e_55_i\._e_36
*244 main\._e_292_i\._e_219_i\._e_151_i\._e_139_i\._e_60_i\._e_36
*245 main\._e_292_i\._e_219_i\._e_151_i\._e_139_i\._e_65_i\._e_36
*246 main\._e_292_i\._e_219_i\._e_151_i\._e_139_i\._e_89
*247 main\._e_292_i\._e_219_i\._e_158_i\._e_126_i\._e_325_i\._e_36
*248 main\._e_292_i\._e_219_i\._e_158_i\._e_126_i\._e_330_i\._e_36
*249 main\._e_292_i\._e_219_i\._e_158_i\._e_126_i\._e_335_i\._e_36
*250 main\._e_292_i\._e_219_i\._e_158_i\._e_132_i\._e_325_i\._e_36
*251 main\._e_292_i\._e_219_i\._e_158_i\._e_132_i\._e_330_i\._e_36
*252 main\._e_292_i\._e_219_i\._e_158_i\._e_132_i\._e_335_i\._e_36
*253 main\._e_292_i\._e_219_i\._e_158_i\._e_139_i\._e_50_i\._e_36
*254 main\._e_292_i\._e_219_i\._e_158_i\._e_139_i\._e_55_i\._e_36
*255 main\._e_292_i\._e_219_i\._e_158_i\._e_139_i\._e_60_i\._e_36
*256 main\._e_292_i\._e_219_i\._e_158_i\._e_139_i\._e_65_i\._e_36
*257 main\._e_292_i\._e_219_i\._e_158_i\._e_139_i\._e_89
*258 main\._e_292_i\._e_219_i\._e_165_i\._e_126_i\._e_325_i\._e_36
*259 main\._e_292_i\._e_219_i\._e_165_i\._e_126_i\._e_330_i\._e_36
*260 main\._e_292_i\._e_219_i\._e_165_i\._e_126_i\._e_335_i\._e_36
*261 main\._e_292_i\._e_219_i\._e_165_i\._e_132_i\._e_325_i\._e_36
*262 main\._e_292_i\._e_219_i\._e_165_i\._e_132_i\._e_330_i\._e_36
*263 main\._e_292_i\._e_219_i\._e_165_i\._e_132_i\._e_335_i\._e_36
*264 main\._e_292_i\._e_219_i\._e_165_i\._e_139_i\._e_50_i\._e_36
*265 main\._e_292_i\._e_219_i\._e_165_i\._e_139_i\._e_55_i\._e_36
*266 main\._e_292_i\._e_219_i\._e_165_i\._e_139_i\._e_60_i\._e_36
*267 main\._e_292_i\._e_219_i\._e_165_i\._e_139_i\._e_65_i\._e_36
*268 main\._e_292_i\._e_219_i\._e_165_i\._e_139_i\._e_89
*269 main\._e_292_i\._e_229_i\._e_459
*270 main\._e_292_i\._e_229_i\._e_468_i\._e_436_i\._e_36
*271 main\._e_292_i\._e_229_i\._e_471
*272 main\._e_292_i\._e_229_i\._e_480_i\._e_436_i\._e_36
*273 main\._e_292_i\._e_229_i\._e_483
*274 main\._e_292_i\._e_229_i\._e_494_i\._e_436_i\._e_36
*275 main\._e_292_i\._e_229_i\._e_499_i\._e_36
*276 main\._e_292_i\._e_243_i\._e_151_i\._e_126_i\._e_325_i\._e_36
*277 main\._e_292_i\._e_243_i\._e_151_i\._e_126_i\._e_330_i\._e_36
*278 main\._e_292_i\._e_243_i\._e_151_i\._e_126_i\._e_335_i\._e_36
*279 main\._e_292_i\._e_243_i\._e_151_i\._e_132_i\._e_325_i\._e_36
*280 main\._e_292_i\._e_243_i\._e_151_i\._e_132_i\._e_330_i\._e_36
*281 main\._e_292_i\._e_243_i\._e_151_i\._e_132_i\._e_335_i\._e_36
*282 main\._e_292_i\._e_243_i\._e_151_i\._e_139_i\._e_50_i\._e_36
*283 main\._e_292_i\._e_243_i\._e_151_i\._e_139_i\._e_55_i\._e_36
*284 main\._e_292_i\._e_243_i\._e_151_i\._e_139_i\._e_60_i\._e_36
*285 main\._e_292_i\._e_243_i\._e_151_i\._e_139_i\._e_65_i\._e_36
*286 main\._e_292_i\._e_243_i\._e_151_i\._e_139_i\._e_89
*287 main\._e_292_i\._e_243_i\._e_158_i\._e_126_i\._e_325_i\._e_36
*288 main\._e_292_i\._e_243_i\._e_158_i\._e_126_i\._e_330_i\._e_36
*289 main\._e_292_i\._e_243_i\._e_158_i\._e_126_i\._e_335_i\._e_36
*290 main\._e_292_i\._e_243_i\._e_158_i\._e_132_i\._e_325_i\._e_36
*291 main\._e_292_i\._e_243_i\._e_158_i\._e_132_i\._e_330_i\._e_36
*292 main\._e_292_i\._e_243_i\._e_158_i\._e_132_i\._e_335_i\._e_36
*293 main\._e_292_i\._e_243_i\._e_158_i\._e_139_i\._e_50_i\._e_36
*294 main\._e_292_i\._e_243_i\._e_158_i\._e_139_i\._e_55_i\._e_36
*295 main\._e_292_i\._e_243_i\._e_158_i\._e_139_i\._e_60_i\._e_36
*296 main\._e_292_i\._e_243_i\._e_158_i\._e_139_i\._e_65_i\._e_36
*297 main\._e_292_i\._e_243_i\._e_158_i\._e_139_i\._e_89
*298 main\._e_292_i\._e_243_i\._e_165_i\._e_126_i\._e_325_i\._e_36
*299 main\._e_292_i\._e_243_i\._e_165_i\._e_126_i\._e_330_i\._e_36
*300 main\._e_292_i\._e_243_i\._e_165_i\._e_126_i\._e_335_i\._e_36
*301 main\._e_292_i\._e_243_i\._e_165_i\._e_132_i\._e_325_i\._e_36
*302 main\._e_292_i\._e_243_i\._e_165_i\._e_132_i\._e_330_i\._e_36
*303 main\._e_292_i\._e_243_i\._e_165_i\._e_132_i\._e_335_i\._e_36
*304 main\._e_292_i\._e_243_i\._e_165_i\._e_139_i\._e_50_i\._e_36
*305 main\._e_292_i\._e_243_i\._e_165_i\._e_139_i\._e_55_i\._e_36
*306 main\._e_292_i\._e_243_i\._e_165_i\._e_139_i\._e_60_i\._e_36
*307 main\._e_292_i\._e_243_i\._e_165_i\._e_139_i\._e_65_i\._e_36
*308 main\._e_292_i\._e_243_i\._e_165_i\._e_139_i\._e_89
*309 main\._e_292_i\._e_259_i\._e_459
*310 main\._e_292_i\._e_259_i\._e_468_i\._e_436_i\._e_36
*311 main\._e_292_i\._e_259_i\._e_471
*312 main\._e_292_i\._e_259_i\._e_480_i\._e_436_i\._e_36
*313 main\._e_292_i\._e_259_i\._e_483
*314 main\._e_292_i\._e_259_i\._e_494_i\._e_436_i\._e_36
*315 main\._e_292_i\.l1_n128_i\._e_151_i\._e_126_i\._e_325_i\._e_36
*316 main\._e_292_i\.l1_n128_i\._e_151_i\._e_126_i\._e_330_i\._e_36
*317 main\._e_292_i\.l1_n128_i\._e_151_i\._e_126_i\._e_335_i\._e_36
*318 main\._e_292_i\.l1_n128_i\._e_151_i\._e_132_i\._e_325_i\._e_36
*319 main\._e_292_i\.l1_n128_i\._e_151_i\._e_132_i\._e_330_i\._e_36
*320 main\._e_292_i\.l1_n128_i\._e_151_i\._e_132_i\._e_335_i\._e_36
*321 main\._e_292_i\.l1_n128_i\._e_151_i\._e_139_i\._e_50_i\._e_36
*322 main\._e_292_i\.l1_n128_i\._e_151_i\._e_139_i\._e_55_i\._e_36
*323 main\._e_292_i\.l1_n128_i\._e_151_i\._e_139_i\._e_60_i\._e_36
*324 main\._e_292_i\.l1_n128_i\._e_151_i\._e_139_i\._e_65_i\._e_36
*325 main\._e_292_i\.l1_n128_i\._e_158_i\._e_126_i\._e_325_i\._e_36
*326 main\._e_292_i\.l1_n128_i\._e_158_i\._e_126_i\._e_330_i\._e_36
*327 main\._e_292_i\.l1_n128_i\._e_158_i\._e_126_i\._e_335_i\._e_36
*328 main\._e_292_i\.l1_n128_i\._e_158_i\._e_132_i\._e_325_i\._e_36
*329 main\._e_292_i\.l1_n128_i\._e_158_i\._e_132_i\._e_330_i\._e_36
*330 main\._e_292_i\.l1_n128_i\._e_158_i\._e_132_i\._e_335_i\._e_36
*331 main\._e_292_i\.l1_n128_i\._e_158_i\._e_139_i\._e_50_i\._e_36
*332 main\._e_292_i\.l1_n128_i\._e_158_i\._e_139_i\._e_55_i\._e_36
*333 main\._e_292_i\.l1_n128_i\._e_158_i\._e_139_i\._e_60_i\._e_36
*334 main\._e_292_i\.l1_n128_i\._e_158_i\._e_139_i\._e_65_i\._e_36
*335 main\._e_292_i\.l1_n128_i\._e_165_i\._e_126_i\._e_325_i\._e_36
*336 main\._e_292_i\.l1_n128_i\._e_165_i\._e_126_i\._e_330_i\._e_36
*337 main\._e_292_i\.l1_n128_i\._e_165_i\._e_126_i\._e_335_i\._e_36
*338 main\._e_292_i\.l1_n128_i\._e_165_i\._e_132_i\._e_325_i\._e_36
*339 main\._e_292_i\.l1_n128_i\._e_165_i\._e_132_i\._e_330_i\._e_36
*340 main\._e_292_i\.l1_n128_i\._e_165_i\._e_132_i\._e_335_i\._e_36
*341 main\._e_292_i\.l1_n128_i\._e_165_i\._e_139_i\._e_50_i\._e_36
*342 main\._e_292_i\.l1_n128_i\._e_165_i\._e_139_i\._e_55_i\._e_36
*343 main\._e_292_i\.l1_n128_i\._e_165_i\._e_139_i\._e_60_i\._e_36
*344 net1
*345 net10
*346 net11
*347 net12
*348 net13
*349 net14
*350 net15
*351 net16
*352 net17
*353 net18
*354 net19
*355 net2
*356 net3
*357 net4
*358 net5
*359 net6
*360 net7
*361 net8
*362 net9
*363 FILLER_0_109
*364 FILLER_0_113
*365 FILLER_0_125
*366 FILLER_0_137
*367 FILLER_0_141
*368 FILLER_0_153
*369 FILLER_0_165
*370 FILLER_0_169
*371 FILLER_0_181
*372 FILLER_0_193
*373 FILLER_0_197
*374 FILLER_0_209
*375 FILLER_0_221
*376 FILLER_0_225
*377 FILLER_0_237
*378 FILLER_0_249
*379 FILLER_0_25
*380 FILLER_0_253
*381 FILLER_0_265
*382 FILLER_0_277
*383 FILLER_0_281
*384 FILLER_0_29
*385 FILLER_0_293
*386 FILLER_0_3
*387 FILLER_0_47
*388 FILLER_0_55
*389 FILLER_0_57
*390 FILLER_0_75
*391 FILLER_0_83
*392 FILLER_0_85
*393 FILLER_0_97
*394 FILLER_10_113
*395 FILLER_10_121
*396 FILLER_10_138
*397 FILLER_10_141
*398 FILLER_10_153
*399 FILLER_10_165
*400 FILLER_10_177
*401 FILLER_10_189
*402 FILLER_10_195
*403 FILLER_10_197
*404 FILLER_10_209
*405 FILLER_10_221
*406 FILLER_10_233
*407 FILLER_10_245
*408 FILLER_10_251
*409 FILLER_10_253
*410 FILLER_10_26
*411 FILLER_10_265
*412 FILLER_10_277
*413 FILLER_10_289
*414 FILLER_10_29
*415 FILLER_10_297
*416 FILLER_10_3
*417 FILLER_10_47
*418 FILLER_10_67
*419 FILLER_10_77
*420 FILLER_10_83
*421 FILLER_10_85
*422 FILLER_10_9
*423 FILLER_11_102
*424 FILLER_11_106
*425 FILLER_11_113
*426 FILLER_11_118
*427 FILLER_11_125
*428 FILLER_11_13
*429 FILLER_11_137
*430 FILLER_11_166
*431 FILLER_11_169
*432 FILLER_11_181
*433 FILLER_11_185
*434 FILLER_11_189
*435 FILLER_11_195
*436 FILLER_11_212
*437 FILLER_11_225
*438 FILLER_11_237
*439 FILLER_11_249
*440 FILLER_11_261
*441 FILLER_11_273
*442 FILLER_11_279
*443 FILLER_11_281
*444 FILLER_11_293
*445 FILLER_11_3
*446 FILLER_11_33
*447 FILLER_11_53
*448 FILLER_11_57
*449 FILLER_11_69
*450 FILLER_11_7
*451 FILLER_11_78
*452 FILLER_11_89
*453 FILLER_11_96
*454 FILLER_12_107
*455 FILLER_12_127
*456 FILLER_12_139
*457 FILLER_12_141
*458 FILLER_12_150
*459 FILLER_12_163
*460 FILLER_12_170
*461 FILLER_12_182
*462 FILLER_12_188
*463 FILLER_12_197
*464 FILLER_12_209
*465 FILLER_12_228
*466 FILLER_12_240
*467 FILLER_12_253
*468 FILLER_12_26
*469 FILLER_12_265
*470 FILLER_12_277
*471 FILLER_12_289
*472 FILLER_12_29
*473 FILLER_12_297
*474 FILLER_12_3
*475 FILLER_12_41
*476 FILLER_12_45
*477 FILLER_12_62
*478 FILLER_12_74
*479 FILLER_12_82
*480 FILLER_12_85
*481 FILLER_12_92
*482 FILLER_12_99
*483 FILLER_13_108
*484 FILLER_13_113
*485 FILLER_13_117
*486 FILLER_13_121
*487 FILLER_13_132
*488 FILLER_13_140
*489 FILLER_13_149
*490 FILLER_13_160
*491 FILLER_13_169
*492 FILLER_13_179
*493 FILLER_13_191
*494 FILLER_13_203
*495 FILLER_13_222
*496 FILLER_13_225
*497 FILLER_13_237
*498 FILLER_13_249
*499 FILLER_13_261
*500 FILLER_13_273
*501 FILLER_13_279
*502 FILLER_13_281
*503 FILLER_13_293
*504 FILLER_13_3
*505 FILLER_13_32
*506 FILLER_13_52
*507 FILLER_13_57
*508 FILLER_13_66
*509 FILLER_13_70
*510 FILLER_13_87
*511 FILLER_13_91
*512 FILLER_14_102
*513 FILLER_14_113
*514 FILLER_14_125
*515 FILLER_14_137
*516 FILLER_14_141
*517 FILLER_14_149
*518 FILLER_14_167
*519 FILLER_14_179
*520 FILLER_14_191
*521 FILLER_14_195
*522 FILLER_14_197
*523 FILLER_14_215
*524 FILLER_14_235
*525 FILLER_14_247
*526 FILLER_14_251
*527 FILLER_14_253
*528 FILLER_14_26
*529 FILLER_14_265
*530 FILLER_14_277
*531 FILLER_14_289
*532 FILLER_14_29
*533 FILLER_14_297
*534 FILLER_14_3
*535 FILLER_14_54
*536 FILLER_14_67
*537 FILLER_14_78
*538 FILLER_14_85
*539 FILLER_14_90
*540 FILLER_15_104
*541 FILLER_15_113
*542 FILLER_15_122
*543 FILLER_15_134
*544 FILLER_15_146
*545 FILLER_15_15
*546 FILLER_15_166
*547 FILLER_15_169
*548 FILLER_15_174
*549 FILLER_15_186
*550 FILLER_15_198
*551 FILLER_15_210
*552 FILLER_15_222
*553 FILLER_15_225
*554 FILLER_15_237
*555 FILLER_15_249
*556 FILLER_15_261
*557 FILLER_15_273
*558 FILLER_15_279
*559 FILLER_15_281
*560 FILLER_15_293
*561 FILLER_15_3
*562 FILLER_15_42
*563 FILLER_15_52
*564 FILLER_15_57
*565 FILLER_15_75
*566 FILLER_15_86
*567 FILLER_15_95
*568 FILLER_16_103
*569 FILLER_16_123
*570 FILLER_16_135
*571 FILLER_16_139
*572 FILLER_16_141
*573 FILLER_16_15
*574 FILLER_16_151
*575 FILLER_16_162
*576 FILLER_16_168
*577 FILLER_16_185
*578 FILLER_16_193
*579 FILLER_16_197
*580 FILLER_16_220
*581 FILLER_16_232
*582 FILLER_16_244
*583 FILLER_16_253
*584 FILLER_16_265
*585 FILLER_16_27
*586 FILLER_16_277
*587 FILLER_16_289
*588 FILLER_16_29
*589 FILLER_16_297
*590 FILLER_16_3
*591 FILLER_16_44
*592 FILLER_16_50
*593 FILLER_16_54
*594 FILLER_16_61
*595 FILLER_16_65
*596 FILLER_16_82
*597 FILLER_16_85
*598 FILLER_17_103
*599 FILLER_17_11
*600 FILLER_17_111
*601 FILLER_17_113
*602 FILLER_17_125
*603 FILLER_17_133
*604 FILLER_17_142
*605 FILLER_17_153
*606 FILLER_17_160
*607 FILLER_17_169
*608 FILLER_17_178
*609 FILLER_17_190
*610 FILLER_17_196
*611 FILLER_17_213
*612 FILLER_17_22
*613 FILLER_17_221
*614 FILLER_17_225
*615 FILLER_17_237
*616 FILLER_17_249
*617 FILLER_17_261
*618 FILLER_17_273
*619 FILLER_17_279
*620 FILLER_17_281
*621 FILLER_17_293
*622 FILLER_17_3
*623 FILLER_17_34
*624 FILLER_17_46
*625 FILLER_17_51
*626 FILLER_17_55
*627 FILLER_17_57
*628 FILLER_17_65
*629 FILLER_17_69
*630 FILLER_17_94
*631 FILLER_18_111
*632 FILLER_18_123
*633 FILLER_18_129
*634 FILLER_18_137
*635 FILLER_18_141
*636 FILLER_18_149
*637 FILLER_18_15
*638 FILLER_18_158
*639 FILLER_18_169
*640 FILLER_18_181
*641 FILLER_18_188
*642 FILLER_18_197
*643 FILLER_18_215
*644 FILLER_18_227
*645 FILLER_18_239
*646 FILLER_18_251
*647 FILLER_18_253
*648 FILLER_18_265
*649 FILLER_18_27
*650 FILLER_18_277
*651 FILLER_18_289
*652 FILLER_18_29
*653 FILLER_18_297
*654 FILLER_18_3
*655 FILLER_18_40
*656 FILLER_18_46
*657 FILLER_18_63
*658 FILLER_18_71
*659 FILLER_18_82
*660 FILLER_18_85
*661 FILLER_18_93
*662 FILLER_19_100
*663 FILLER_19_107
*664 FILLER_19_111
*665 FILLER_19_113
*666 FILLER_19_120
*667 FILLER_19_132
*668 FILLER_19_144
*669 FILLER_19_15
*670 FILLER_19_155
*671 FILLER_19_167
*672 FILLER_19_169
*673 FILLER_19_184
*674 FILLER_19_196
*675 FILLER_19_208
*676 FILLER_19_220
*677 FILLER_19_225
*678 FILLER_19_237
*679 FILLER_19_249
*680 FILLER_19_261
*681 FILLER_19_27
*682 FILLER_19_273
*683 FILLER_19_279
*684 FILLER_19_281
*685 FILLER_19_293
*686 FILLER_19_3
*687 FILLER_19_39
*688 FILLER_19_51
*689 FILLER_19_55
*690 FILLER_19_57
*691 FILLER_19_69
*692 FILLER_19_80
*693 FILLER_19_91
*694 FILLER_1_103
*695 FILLER_1_111
*696 FILLER_1_113
*697 FILLER_1_125
*698 FILLER_1_137
*699 FILLER_1_149
*700 FILLER_1_161
*701 FILLER_1_167
*702 FILLER_1_169
*703 FILLER_1_181
*704 FILLER_1_193
*705 FILLER_1_205
*706 FILLER_1_21
*707 FILLER_1_217
*708 FILLER_1_223
*709 FILLER_1_225
*710 FILLER_1_237
*711 FILLER_1_249
*712 FILLER_1_261
*713 FILLER_1_273
*714 FILLER_1_279
*715 FILLER_1_281
*716 FILLER_1_293
*717 FILLER_1_3
*718 FILLER_1_41
*719 FILLER_1_53
*720 FILLER_1_57
*721 FILLER_1_69
*722 FILLER_1_91
*723 FILLER_20_103
*724 FILLER_20_111
*725 FILLER_20_118
*726 FILLER_20_138
*727 FILLER_20_141
*728 FILLER_20_15
*729 FILLER_20_151
*730 FILLER_20_163
*731 FILLER_20_176
*732 FILLER_20_187
*733 FILLER_20_195
*734 FILLER_20_197
*735 FILLER_20_209
*736 FILLER_20_221
*737 FILLER_20_233
*738 FILLER_20_245
*739 FILLER_20_251
*740 FILLER_20_253
*741 FILLER_20_265
*742 FILLER_20_27
*743 FILLER_20_277
*744 FILLER_20_289
*745 FILLER_20_29
*746 FILLER_20_297
*747 FILLER_20_3
*748 FILLER_20_41
*749 FILLER_20_53
*750 FILLER_20_65
*751 FILLER_20_73
*752 FILLER_20_82
*753 FILLER_20_85
*754 FILLER_20_96
*755 FILLER_21_108
*756 FILLER_21_113
*757 FILLER_21_123
*758 FILLER_21_143
*759 FILLER_21_15
*760 FILLER_21_150
*761 FILLER_21_162
*762 FILLER_21_169
*763 FILLER_21_181
*764 FILLER_21_193
*765 FILLER_21_205
*766 FILLER_21_217
*767 FILLER_21_223
*768 FILLER_21_225
*769 FILLER_21_237
*770 FILLER_21_249
*771 FILLER_21_261
*772 FILLER_21_27
*773 FILLER_21_273
*774 FILLER_21_279
*775 FILLER_21_281
*776 FILLER_21_293
*777 FILLER_21_3
*778 FILLER_21_39
*779 FILLER_21_51
*780 FILLER_21_55
*781 FILLER_21_57
*782 FILLER_21_69
*783 FILLER_21_78
*784 FILLER_21_99
*785 FILLER_22_109
*786 FILLER_22_118
*787 FILLER_22_138
*788 FILLER_22_141
*789 FILLER_22_15
*790 FILLER_22_159
*791 FILLER_22_171
*792 FILLER_22_179
*793 FILLER_22_191
*794 FILLER_22_195
*795 FILLER_22_197
*796 FILLER_22_209
*797 FILLER_22_221
*798 FILLER_22_233
*799 FILLER_22_245
*800 FILLER_22_251
*801 FILLER_22_253
*802 FILLER_22_265
*803 FILLER_22_27
*804 FILLER_22_277
*805 FILLER_22_289
*806 FILLER_22_29
*807 FILLER_22_297
*808 FILLER_22_3
*809 FILLER_22_41
*810 FILLER_22_53
*811 FILLER_22_65
*812 FILLER_22_77
*813 FILLER_22_83
*814 FILLER_22_85
*815 FILLER_22_97
*816 FILLER_23_103
*817 FILLER_23_110
*818 FILLER_23_113
*819 FILLER_23_126
*820 FILLER_23_137
*821 FILLER_23_15
*822 FILLER_23_157
*823 FILLER_23_166
*824 FILLER_23_169
*825 FILLER_23_181
*826 FILLER_23_193
*827 FILLER_23_205
*828 FILLER_23_217
*829 FILLER_23_223
*830 FILLER_23_225
*831 FILLER_23_237
*832 FILLER_23_249
*833 FILLER_23_261
*834 FILLER_23_27
*835 FILLER_23_273
*836 FILLER_23_279
*837 FILLER_23_281
*838 FILLER_23_293
*839 FILLER_23_3
*840 FILLER_23_39
*841 FILLER_23_51
*842 FILLER_23_55
*843 FILLER_23_57
*844 FILLER_23_69
*845 FILLER_23_77
*846 FILLER_23_89
*847 FILLER_23_99
*848 FILLER_24_108
*849 FILLER_24_120
*850 FILLER_24_128
*851 FILLER_24_138
*852 FILLER_24_141
*853 FILLER_24_15
*854 FILLER_24_153
*855 FILLER_24_165
*856 FILLER_24_177
*857 FILLER_24_189
*858 FILLER_24_195
*859 FILLER_24_197
*860 FILLER_24_209
*861 FILLER_24_221
*862 FILLER_24_233
*863 FILLER_24_245
*864 FILLER_24_251
*865 FILLER_24_253
*866 FILLER_24_265
*867 FILLER_24_27
*868 FILLER_24_277
*869 FILLER_24_289
*870 FILLER_24_29
*871 FILLER_24_297
*872 FILLER_24_3
*873 FILLER_24_41
*874 FILLER_24_53
*875 FILLER_24_65
*876 FILLER_24_71
*877 FILLER_24_78
*878 FILLER_24_85
*879 FILLER_24_96
*880 FILLER_25_100
*881 FILLER_25_113
*882 FILLER_25_125
*883 FILLER_25_137
*884 FILLER_25_146
*885 FILLER_25_15
*886 FILLER_25_158
*887 FILLER_25_166
*888 FILLER_25_169
*889 FILLER_25_181
*890 FILLER_25_193
*891 FILLER_25_205
*892 FILLER_25_217
*893 FILLER_25_223
*894 FILLER_25_225
*895 FILLER_25_237
*896 FILLER_25_249
*897 FILLER_25_261
*898 FILLER_25_27
*899 FILLER_25_273
*900 FILLER_25_279
*901 FILLER_25_281
*902 FILLER_25_293
*903 FILLER_25_3
*904 FILLER_25_39
*905 FILLER_25_51
*906 FILLER_25_55
*907 FILLER_25_57
*908 FILLER_25_69
*909 FILLER_25_89
*910 FILLER_26_105
*911 FILLER_26_117
*912 FILLER_26_129
*913 FILLER_26_137
*914 FILLER_26_141
*915 FILLER_26_145
*916 FILLER_26_149
*917 FILLER_26_15
*918 FILLER_26_161
*919 FILLER_26_169
*920 FILLER_26_175
*921 FILLER_26_187
*922 FILLER_26_195
*923 FILLER_26_197
*924 FILLER_26_209
*925 FILLER_26_213
*926 FILLER_26_230
*927 FILLER_26_242
*928 FILLER_26_250
*929 FILLER_26_253
*930 FILLER_26_265
*931 FILLER_26_27
*932 FILLER_26_277
*933 FILLER_26_289
*934 FILLER_26_29
*935 FILLER_26_297
*936 FILLER_26_3
*937 FILLER_26_41
*938 FILLER_26_53
*939 FILLER_26_65
*940 FILLER_26_77
*941 FILLER_26_83
*942 FILLER_26_85
*943 FILLER_26_93
*944 FILLER_27_111
*945 FILLER_27_113
*946 FILLER_27_125
*947 FILLER_27_137
*948 FILLER_27_149
*949 FILLER_27_15
*950 FILLER_27_161
*951 FILLER_27_167
*952 FILLER_27_169
*953 FILLER_27_181
*954 FILLER_27_200
*955 FILLER_27_212
*956 FILLER_27_225
*957 FILLER_27_237
*958 FILLER_27_249
*959 FILLER_27_261
*960 FILLER_27_27
*961 FILLER_27_273
*962 FILLER_27_279
*963 FILLER_27_281
*964 FILLER_27_293
*965 FILLER_27_3
*966 FILLER_27_39
*967 FILLER_27_51
*968 FILLER_27_55
*969 FILLER_27_57
*970 FILLER_27_65
*971 FILLER_27_75
*972 FILLER_27_87
*973 FILLER_27_91
*974 FILLER_27_99
*975 FILLER_28_109
*976 FILLER_28_121
*977 FILLER_28_133
*978 FILLER_28_139
*979 FILLER_28_141
*980 FILLER_28_15
*981 FILLER_28_153
*982 FILLER_28_165
*983 FILLER_28_177
*984 FILLER_28_184
*985 FILLER_28_194
*986 FILLER_28_197
*987 FILLER_28_207
*988 FILLER_28_214
*989 FILLER_28_226
*990 FILLER_28_238
*991 FILLER_28_250
*992 FILLER_28_253
*993 FILLER_28_265
*994 FILLER_28_27
*995 FILLER_28_277
*996 FILLER_28_289
*997 FILLER_28_29
*998 FILLER_28_297
*999 FILLER_28_3
*1000 FILLER_28_41
*1001 FILLER_28_53
*1002 FILLER_28_62
*1003 FILLER_28_82
*1004 FILLER_28_85
*1005 FILLER_28_97
*1006 FILLER_29_111
*1007 FILLER_29_113
*1008 FILLER_29_121
*1009 FILLER_29_127
*1010 FILLER_29_139
*1011 FILLER_29_147
*1012 FILLER_29_15
*1013 FILLER_29_155
*1014 FILLER_29_167
*1015 FILLER_29_169
*1016 FILLER_29_181
*1017 FILLER_29_199
*1018 FILLER_29_206
*1019 FILLER_29_213
*1020 FILLER_29_221
*1021 FILLER_29_225
*1022 FILLER_29_237
*1023 FILLER_29_249
*1024 FILLER_29_261
*1025 FILLER_29_27
*1026 FILLER_29_273
*1027 FILLER_29_279
*1028 FILLER_29_281
*1029 FILLER_29_293
*1030 FILLER_29_3
*1031 FILLER_29_39
*1032 FILLER_29_51
*1033 FILLER_29_55
*1034 FILLER_29_57
*1035 FILLER_29_63
*1036 FILLER_29_80
*1037 FILLER_29_87
*1038 FILLER_29_99
*1039 FILLER_2_103
*1040 FILLER_2_115
*1041 FILLER_2_127
*1042 FILLER_2_139
*1043 FILLER_2_141
*1044 FILLER_2_153
*1045 FILLER_2_165
*1046 FILLER_2_177
*1047 FILLER_2_189
*1048 FILLER_2_195
*1049 FILLER_2_197
*1050 FILLER_2_209
*1051 FILLER_2_221
*1052 FILLER_2_233
*1053 FILLER_2_245
*1054 FILLER_2_25
*1055 FILLER_2_251
*1056 FILLER_2_253
*1057 FILLER_2_265
*1058 FILLER_2_277
*1059 FILLER_2_289
*1060 FILLER_2_29
*1061 FILLER_2_297
*1062 FILLER_2_3
*1063 FILLER_2_47
*1064 FILLER_2_67
*1065 FILLER_2_79
*1066 FILLER_2_83
*1067 FILLER_2_85
*1068 FILLER_2_91
*1069 FILLER_30_106
*1070 FILLER_30_118
*1071 FILLER_30_138
*1072 FILLER_30_141
*1073 FILLER_30_15
*1074 FILLER_30_159
*1075 FILLER_30_167
*1076 FILLER_30_179
*1077 FILLER_30_191
*1078 FILLER_30_195
*1079 FILLER_30_197
*1080 FILLER_30_209
*1081 FILLER_30_227
*1082 FILLER_30_247
*1083 FILLER_30_251
*1084 FILLER_30_253
*1085 FILLER_30_265
*1086 FILLER_30_27
*1087 FILLER_30_277
*1088 FILLER_30_289
*1089 FILLER_30_29
*1090 FILLER_30_297
*1091 FILLER_30_3
*1092 FILLER_30_41
*1093 FILLER_30_49
*1094 FILLER_30_54
*1095 FILLER_30_62
*1096 FILLER_30_82
*1097 FILLER_30_85
*1098 FILLER_30_94
*1099 FILLER_31_108
*1100 FILLER_31_113
*1101 FILLER_31_125
*1102 FILLER_31_137
*1103 FILLER_31_141
*1104 FILLER_31_148
*1105 FILLER_31_158
*1106 FILLER_31_16
*1107 FILLER_31_165
*1108 FILLER_31_169
*1109 FILLER_31_177
*1110 FILLER_31_185
*1111 FILLER_31_197
*1112 FILLER_31_217
*1113 FILLER_31_22
*1114 FILLER_31_223
*1115 FILLER_31_225
*1116 FILLER_31_237
*1117 FILLER_31_249
*1118 FILLER_31_261
*1119 FILLER_31_273
*1120 FILLER_31_279
*1121 FILLER_31_281
*1122 FILLER_31_293
*1123 FILLER_31_3
*1124 FILLER_31_34
*1125 FILLER_31_46
*1126 FILLER_31_54
*1127 FILLER_31_57
*1128 FILLER_31_65
*1129 FILLER_31_75
*1130 FILLER_31_8
*1131 FILLER_31_81
*1132 FILLER_31_89
*1133 FILLER_31_96
*1134 FILLER_32_106
*1135 FILLER_32_118
*1136 FILLER_32_130
*1137 FILLER_32_138
*1138 FILLER_32_141
*1139 FILLER_32_15
*1140 FILLER_32_153
*1141 FILLER_32_173
*1142 FILLER_32_179
*1143 FILLER_32_190
*1144 FILLER_32_197
*1145 FILLER_32_209
*1146 FILLER_32_221
*1147 FILLER_32_233
*1148 FILLER_32_245
*1149 FILLER_32_251
*1150 FILLER_32_253
*1151 FILLER_32_265
*1152 FILLER_32_27
*1153 FILLER_32_277
*1154 FILLER_32_289
*1155 FILLER_32_29
*1156 FILLER_32_297
*1157 FILLER_32_3
*1158 FILLER_32_41
*1159 FILLER_32_53
*1160 FILLER_32_65
*1161 FILLER_32_76
*1162 FILLER_32_85
*1163 FILLER_32_94
*1164 FILLER_33_103
*1165 FILLER_33_111
*1166 FILLER_33_113
*1167 FILLER_33_125
*1168 FILLER_33_137
*1169 FILLER_33_15
*1170 FILLER_33_151
*1171 FILLER_33_158
*1172 FILLER_33_165
*1173 FILLER_33_169
*1174 FILLER_33_181
*1175 FILLER_33_193
*1176 FILLER_33_205
*1177 FILLER_33_217
*1178 FILLER_33_223
*1179 FILLER_33_225
*1180 FILLER_33_237
*1181 FILLER_33_249
*1182 FILLER_33_261
*1183 FILLER_33_27
*1184 FILLER_33_273
*1185 FILLER_33_279
*1186 FILLER_33_281
*1187 FILLER_33_293
*1188 FILLER_33_3
*1189 FILLER_33_39
*1190 FILLER_33_51
*1191 FILLER_33_55
*1192 FILLER_33_57
*1193 FILLER_33_65
*1194 FILLER_33_83
*1195 FILLER_34_109
*1196 FILLER_34_121
*1197 FILLER_34_133
*1198 FILLER_34_139
*1199 FILLER_34_141
*1200 FILLER_34_15
*1201 FILLER_34_153
*1202 FILLER_34_157
*1203 FILLER_34_174
*1204 FILLER_34_186
*1205 FILLER_34_194
*1206 FILLER_34_197
*1207 FILLER_34_209
*1208 FILLER_34_221
*1209 FILLER_34_233
*1210 FILLER_34_245
*1211 FILLER_34_251
*1212 FILLER_34_253
*1213 FILLER_34_265
*1214 FILLER_34_27
*1215 FILLER_34_277
*1216 FILLER_34_289
*1217 FILLER_34_29
*1218 FILLER_34_297
*1219 FILLER_34_3
*1220 FILLER_34_41
*1221 FILLER_34_53
*1222 FILLER_34_61
*1223 FILLER_34_79
*1224 FILLER_34_83
*1225 FILLER_34_85
*1226 FILLER_34_97
*1227 FILLER_35_107
*1228 FILLER_35_111
*1229 FILLER_35_113
*1230 FILLER_35_125
*1231 FILLER_35_137
*1232 FILLER_35_149
*1233 FILLER_35_15
*1234 FILLER_35_161
*1235 FILLER_35_167
*1236 FILLER_35_169
*1237 FILLER_35_187
*1238 FILLER_35_199
*1239 FILLER_35_211
*1240 FILLER_35_223
*1241 FILLER_35_225
*1242 FILLER_35_237
*1243 FILLER_35_249
*1244 FILLER_35_261
*1245 FILLER_35_27
*1246 FILLER_35_273
*1247 FILLER_35_279
*1248 FILLER_35_281
*1249 FILLER_35_293
*1250 FILLER_35_3
*1251 FILLER_35_39
*1252 FILLER_35_51
*1253 FILLER_35_55
*1254 FILLER_35_57
*1255 FILLER_35_69
*1256 FILLER_35_81
*1257 FILLER_35_89
*1258 FILLER_35_97
*1259 FILLER_36_100
*1260 FILLER_36_110
*1261 FILLER_36_122
*1262 FILLER_36_129
*1263 FILLER_36_138
*1264 FILLER_36_141
*1265 FILLER_36_15
*1266 FILLER_36_153
*1267 FILLER_36_165
*1268 FILLER_36_177
*1269 FILLER_36_189
*1270 FILLER_36_195
*1271 FILLER_36_197
*1272 FILLER_36_209
*1273 FILLER_36_221
*1274 FILLER_36_233
*1275 FILLER_36_245
*1276 FILLER_36_251
*1277 FILLER_36_253
*1278 FILLER_36_265
*1279 FILLER_36_27
*1280 FILLER_36_277
*1281 FILLER_36_289
*1282 FILLER_36_29
*1283 FILLER_36_297
*1284 FILLER_36_3
*1285 FILLER_36_41
*1286 FILLER_36_53
*1287 FILLER_36_65
*1288 FILLER_36_77
*1289 FILLER_36_83
*1290 FILLER_36_85
*1291 FILLER_36_91
*1292 FILLER_37_106
*1293 FILLER_37_113
*1294 FILLER_37_122
*1295 FILLER_37_133
*1296 FILLER_37_143
*1297 FILLER_37_15
*1298 FILLER_37_155
*1299 FILLER_37_167
*1300 FILLER_37_169
*1301 FILLER_37_181
*1302 FILLER_37_193
*1303 FILLER_37_205
*1304 FILLER_37_217
*1305 FILLER_37_223
*1306 FILLER_37_225
*1307 FILLER_37_237
*1308 FILLER_37_249
*1309 FILLER_37_261
*1310 FILLER_37_27
*1311 FILLER_37_273
*1312 FILLER_37_279
*1313 FILLER_37_281
*1314 FILLER_37_293
*1315 FILLER_37_3
*1316 FILLER_37_39
*1317 FILLER_37_51
*1318 FILLER_37_55
*1319 FILLER_37_57
*1320 FILLER_37_69
*1321 FILLER_37_81
*1322 FILLER_37_93
*1323 FILLER_38_112
*1324 FILLER_38_121
*1325 FILLER_38_129
*1326 FILLER_38_138
*1327 FILLER_38_141
*1328 FILLER_38_15
*1329 FILLER_38_150
*1330 FILLER_38_162
*1331 FILLER_38_174
*1332 FILLER_38_186
*1333 FILLER_38_194
*1334 FILLER_38_197
*1335 FILLER_38_209
*1336 FILLER_38_221
*1337 FILLER_38_233
*1338 FILLER_38_245
*1339 FILLER_38_251
*1340 FILLER_38_253
*1341 FILLER_38_265
*1342 FILLER_38_27
*1343 FILLER_38_277
*1344 FILLER_38_289
*1345 FILLER_38_29
*1346 FILLER_38_297
*1347 FILLER_38_3
*1348 FILLER_38_41
*1349 FILLER_38_53
*1350 FILLER_38_65
*1351 FILLER_38_77
*1352 FILLER_38_83
*1353 FILLER_38_85
*1354 FILLER_38_93
*1355 FILLER_39_103
*1356 FILLER_39_109
*1357 FILLER_39_113
*1358 FILLER_39_119
*1359 FILLER_39_127
*1360 FILLER_39_136
*1361 FILLER_39_148
*1362 FILLER_39_15
*1363 FILLER_39_160
*1364 FILLER_39_169
*1365 FILLER_39_181
*1366 FILLER_39_193
*1367 FILLER_39_205
*1368 FILLER_39_21
*1369 FILLER_39_217
*1370 FILLER_39_223
*1371 FILLER_39_225
*1372 FILLER_39_237
*1373 FILLER_39_249
*1374 FILLER_39_261
*1375 FILLER_39_273
*1376 FILLER_39_279
*1377 FILLER_39_281
*1378 FILLER_39_293
*1379 FILLER_39_3
*1380 FILLER_39_33
*1381 FILLER_39_45
*1382 FILLER_39_53
*1383 FILLER_39_57
*1384 FILLER_39_69
*1385 FILLER_39_81
*1386 FILLER_39_95
*1387 FILLER_3_103
*1388 FILLER_3_111
*1389 FILLER_3_113
*1390 FILLER_3_121
*1391 FILLER_3_130
*1392 FILLER_3_142
*1393 FILLER_3_15
*1394 FILLER_3_154
*1395 FILLER_3_166
*1396 FILLER_3_169
*1397 FILLER_3_181