*SPEF "ieee 1481-1999"
*DESIGN "tholin_avalonsemi_5401"
*DATE "11:11:11 Fri 11 11, 1111"
*VENDOR "OpenRCX"
*PROGRAM "Parallel Extraction"
*VERSION "1.0"
*DESIGN_FLOW "NAME_SCOPE LOCAL" "PIN_CAP NONE"
*DIVIDER /
*DELIMITER :
*BUS_DELIMITER []
*T_UNIT 1 NS
*C_UNIT 1 PF
*R_UNIT 1 OHM
*L_UNIT 1 HENRY

*NAME_MAP
*1 io_in[0]
*2 io_in[1]
*3 io_in[2]
*4 io_in[3]
*5 io_in[4]
*6 io_in[5]
*7 io_in[6]
*8 io_in[7]
*9 io_out[0]
*10 io_out[1]
*11 io_out[2]
*12 io_out[3]
*13 io_out[4]
*14 io_out[5]
*15 io_out[6]
*16 io_out[7]
*19 CIRCUIT_0\.GATES_10\.result
*20 CIRCUIT_0\.GATES_27\.result
*21 CIRCUIT_0\.GATES_28\.result
*22 CIRCUIT_0\.GATES_30\.result
*23 CIRCUIT_0\.GATES_33\.input2
*24 CIRCUIT_0\.GATES_35\.result
*25 CIRCUIT_0\.GATES_38\.result
*26 CIRCUIT_0\.GATES_39\.result
*27 CIRCUIT_0\.GATES_40\.result
*28 CIRCUIT_0\.GATES_41\.result
*29 CIRCUIT_0\.GATES_42\.result
*30 CIRCUIT_0\.GATES_53\.result
*31 CIRCUIT_0\.GATES_60\.result
*32 CIRCUIT_0\.GATES_9\.result
*33 CIRCUIT_0\.MEMORY_62\.d
*34 CIRCUIT_0\.MEMORY_62\.s_currentState
*35 CIRCUIT_0\.MEMORY_63\.d
*36 CIRCUIT_0\.MEMORY_63\.s_currentState
*37 CIRCUIT_0\.MEMORY_64\.d
*38 CIRCUIT_0\.MEMORY_64\.s_currentState
*39 CIRCUIT_0\.MEMORY_65\.d
*40 CIRCUIT_0\.MEMORY_65\.s_currentState
*41 CIRCUIT_0\.MEMORY_66\.d
*42 CIRCUIT_0\.MEMORY_66\.s_currentState
*43 CIRCUIT_0\.MEMORY_67\.d
*44 CIRCUIT_0\.MEMORY_67\.s_currentState
*45 CIRCUIT_0\.MEMORY_68\.s_currentState
*46 CIRCUIT_0\.MEMORY_69\.s_currentState
*47 CIRCUIT_0\.MEMORY_70\.s_currentState
*48 CIRCUIT_0\.MEMORY_71\.s_currentState
*49 CIRCUIT_0\.MEMORY_72\.s_currentState
*50 CIRCUIT_0\.MEMORY_73\.s_currentState
*51 CIRCUIT_0\.MEMORY_74\.s_currentState
*52 CIRCUIT_0\.MEMORY_75\.s_currentState
*53 CIRCUIT_0\.MEMORY_76\.s_currentState
*54 CIRCUIT_0\.MEMORY_77\.s_currentState
*55 CIRCUIT_0\.MEMORY_78\.s_currentState
*56 CIRCUIT_0\.MEMORY_79\.s_currentState
*57 CIRCUIT_0\.MEMORY_80\.s_currentState
*58 CIRCUIT_0\.MEMORY_81\.s_currentState
*59 CIRCUIT_0\.MEMORY_82\.s_currentState
*60 CIRCUIT_0\.MEMORY_83\.s_currentState
*61 CIRCUIT_0\.MEMORY_84\.s_currentState
*62 CIRCUIT_0\.MEMORY_85\.s_currentState
*63 CIRCUIT_0\.MEMORY_86\.s_currentState
*64 CIRCUIT_0\.MEMORY_87\.s_currentState
*65 CIRCUIT_0\.MEMORY_88\.s_currentState
*66 CIRCUIT_0\.O_4_MAR
*67 CIRCUIT_0\.O_5_WRITE
*68 CIRCUIT_0\.O_6_JMP
*69 CIRCUIT_0\.O_7_I
*70 CIRCUIT_0\.O_D0_RR0
*71 CIRCUIT_0\.O_D1_RR1
*72 CIRCUIT_0\.O_D2_RR2
*73 CIRCUIT_0\.O_D3_RR3
*74 CIRCUIT_0\.clock_gen_2_1\.CLK1
*75 CIRCUIT_0\.clock_gen_2_1\.GATES_1\.input2
*76 CIRCUIT_0\.clock_gen_2_1\.GATES_3\.result
*77 CIRCUIT_0\.clock_gen_2_1\.MEMORY_4\.d
*78 CIRCUIT_0\.clock_gen_2_1\.MEMORY_4\.s_currentState
*79 CIRCUIT_0\.clock_gen_2_1\.MEMORY_5\.d
*80 CIRCUIT_0\.clock_gen_2_1\.MEMORY_5\.s_currentState
*81 CIRCUIT_0\.clock_gen_2_1\.MEMORY_6\.s_currentState
*82 CIRCUIT_0\.dest_reg_sel_new_1\.GATES_14\.input1
*83 CIRCUIT_0\.dest_reg_sel_new_1\.GATES_14\.input2
*84 CIRCUIT_0\.dest_reg_sel_new_1\.GATES_26\.result
*85 CIRCUIT_0\.inst_dec_1\.MEMORY_21\.s_currentState
*86 CIRCUIT_0\.inst_dec_1\.MEMORY_22\.s_currentState
*87 CIRCUIT_0\.inst_dec_1\.MEMORY_23\.s_currentState
*88 CIRCUIT_0\.inst_dec_1\.MEMORY_24\.s_currentState
*89 CIRCUIT_0\.int_memory_1\.GATES_1\.input2\[0\]
*90 CIRCUIT_0\.int_memory_1\.GATES_1\.input2\[1\]
*91 CIRCUIT_0\.int_memory_1\.GATES_1\.input2\[2\]
*92 CIRCUIT_0\.int_memory_1\.GATES_1\.input2\[3\]
*93 CIRCUIT_0\.int_memory_1\.GATES_2\.input2\[0\]
*94 CIRCUIT_0\.int_memory_1\.GATES_2\.input2\[1\]
*95 CIRCUIT_0\.int_memory_1\.GATES_2\.input2\[2\]
*96 CIRCUIT_0\.int_memory_1\.GATES_2\.input2\[3\]
*97 CIRCUIT_0\.int_memory_1\.GATES_21\.result
*98 CIRCUIT_0\.int_memory_1\.GATES_22\.result
*99 CIRCUIT_0\.int_memory_1\.GATES_23\.result
*100 CIRCUIT_0\.int_memory_1\.GATES_24\.result
*101 CIRCUIT_0\.int_memory_1\.GATES_25\.result
*102 CIRCUIT_0\.int_memory_1\.GATES_26\.result
*103 CIRCUIT_0\.int_memory_1\.GATES_27\.result
*104 CIRCUIT_0\.int_memory_1\.GATES_28\.result
*105 CIRCUIT_0\.int_memory_1\.GATES_29\.result
*106 CIRCUIT_0\.int_memory_1\.GATES_3\.input2\[0\]
*107 CIRCUIT_0\.int_memory_1\.GATES_3\.input2\[1\]
*108 CIRCUIT_0\.int_memory_1\.GATES_3\.input2\[2\]
*109 CIRCUIT_0\.int_memory_1\.GATES_3\.input2\[3\]
*110 CIRCUIT_0\.int_memory_1\.GATES_30\.result
*111 CIRCUIT_0\.int_memory_1\.GATES_31\.result
*112 CIRCUIT_0\.int_memory_1\.GATES_32\.result
*113 CIRCUIT_0\.int_memory_1\.GATES_33\.result
*114 CIRCUIT_0\.int_memory_1\.GATES_4\.input2\[0\]
*115 CIRCUIT_0\.int_memory_1\.GATES_4\.input2\[1\]
*116 CIRCUIT_0\.int_memory_1\.GATES_4\.input2\[2\]
*117 CIRCUIT_0\.int_memory_1\.GATES_4\.input2\[3\]
*118 CIRCUIT_0\.int_memory_1\.GATES_49\.input2\[0\]
*119 CIRCUIT_0\.int_memory_1\.GATES_49\.input2\[1\]
*120 CIRCUIT_0\.int_memory_1\.GATES_49\.input2\[2\]
*121 CIRCUIT_0\.int_memory_1\.GATES_49\.input2\[3\]
*122 CIRCUIT_0\.int_memory_1\.GATES_5\.input2\[0\]
*123 CIRCUIT_0\.int_memory_1\.GATES_5\.input2\[1\]
*124 CIRCUIT_0\.int_memory_1\.GATES_5\.input2\[2\]
*125 CIRCUIT_0\.int_memory_1\.GATES_5\.input2\[3\]
*126 CIRCUIT_0\.int_memory_1\.GATES_50\.result
*127 CIRCUIT_0\.int_memory_1\.GATES_51\.input2\[0\]
*128 CIRCUIT_0\.int_memory_1\.GATES_51\.input2\[1\]
*129 CIRCUIT_0\.int_memory_1\.GATES_51\.input2\[2\]
*130 CIRCUIT_0\.int_memory_1\.GATES_51\.input2\[3\]
*131 CIRCUIT_0\.int_memory_1\.GATES_53\.result
*132 CIRCUIT_0\.int_memory_1\.GATES_6\.input2\[0\]
*133 CIRCUIT_0\.int_memory_1\.GATES_6\.input2\[1\]
*134 CIRCUIT_0\.int_memory_1\.GATES_6\.input2\[2\]
*135 CIRCUIT_0\.int_memory_1\.GATES_6\.input2\[3\]
*136 CIRCUIT_0\.int_memory_1\.GATES_7\.input2\[0\]
*137 CIRCUIT_0\.int_memory_1\.GATES_7\.input2\[1\]
*138 CIRCUIT_0\.int_memory_1\.GATES_7\.input2\[2\]
*139 CIRCUIT_0\.int_memory_1\.GATES_7\.input2\[3\]
*140 CIRCUIT_0\.int_memory_1\.GATES_8\.input2\[0\]
*141 CIRCUIT_0\.int_memory_1\.GATES_8\.input2\[1\]
*142 CIRCUIT_0\.int_memory_1\.GATES_8\.input2\[2\]
*143 CIRCUIT_0\.int_memory_1\.GATES_8\.input2\[3\]
*144 CIRCUIT_0\.int_memory_1\.div_1\.A0
*145 CIRCUIT_0\.int_memory_1\.div_1\.A1
*146 CIRCUIT_0\.int_memory_1\.div_1\.A2
*147 CIRCUIT_0\.int_memory_1\.div_1\.A3
*148 CIRCUIT_0\.int_memory_1\.div_1\.A4
*149 CIRCUIT_0\.int_memory_1\.div_1\.A5
*150 CIRCUIT_0\.int_memory_1\.div_1\.A6
*151 CIRCUIT_0\.int_memory_1\.div_1\.A7
*152 CIRCUIT_0\.int_memory_1\.div_1\.B0
*153 CIRCUIT_0\.int_memory_1\.div_1\.B1
*154 CIRCUIT_0\.int_memory_1\.div_1\.B2
*155 CIRCUIT_0\.int_memory_1\.div_1\.B3
*156 CIRCUIT_0\.int_memory_1\.mul2_1\.A0
*157 CIRCUIT_0\.int_memory_1\.mul2_1\.A1
*158 CIRCUIT_0\.int_memory_1\.mul2_1\.A2
*159 CIRCUIT_0\.int_memory_1\.mul2_1\.A3
*160 CIRCUIT_0\.int_memory_1\.mul2_1\.B0
*161 CIRCUIT_0\.int_memory_1\.mul2_1\.B1
*162 CIRCUIT_0\.int_memory_1\.mul2_1\.B2
*163 CIRCUIT_0\.int_memory_1\.mul2_1\.B3
*164 _0000_
*165 _0001_
*166 _0002_
*167 _0003_
*168 _0004_
*169 _0005_
*170 _0006_
*171 _0007_
*172 _0008_
*173 _0009_
*174 _0010_
*175 _0011_
*176 _0012_
*177 _0013_
*178 _0014_
*179 _0015_
*180 _0016_
*181 _0017_
*182 _0018_
*183 _0019_
*184 _0020_
*185 _0021_
*186 _0022_
*187 _0023_
*188 _0024_
*189 _0025_
*190 _0026_
*191 _0027_
*192 _0028_
*193 _0029_
*194 _0030_
*195 _0031_
*196 _0032_
*197 _0033_
*198 _0034_
*199 _0035_
*200 _0036_
*201 _0037_
*202 _0038_
*203 _0039_
*204 _0040_
*205 _0041_
*206 _0042_
*207 _0043_
*208 _0044_
*209 _0045_
*210 _0046_
*211 _0047_
*212 _0048_
*213 _0049_
*214 _0050_
*215 _0051_
*216 _0052_
*217 _0053_
*218 _0054_
*219 _0055_
*220 _0056_
*221 _0057_
*222 _0058_
*223 _0059_
*224 _0060_
*225 _0061_
*226 _0062_
*227 _0063_
*228 _0064_
*229 _0065_
*230 _0066_
*231 _0067_
*232 _0068_
*233 _0069_
*234 _0070_
*235 _0071_
*236 _0072_
*237 _0073_
*238 _0074_
*239 _0075_
*240 _0076_
*241 _0077_
*242 _0078_
*243 _0079_
*244 _0080_
*245 _0081_
*246 _0082_
*247 _0083_
*248 _0084_
*249 _0085_
*250 _0086_
*251 _0087_
*252 _0088_
*253 _0089_
*254 _0090_
*255 _0091_
*256 _0092_
*257 _0093_
*258 _0094_
*259 _0095_
*260 _0096_
*261 _0097_
*262 _0098_
*263 _0099_
*264 _0100_
*265 _0101_
*266 _0102_
*267 _0103_
*268 _0104_
*269 _0105_
*270 _0106_
*271 _0107_
*272 _0108_
*273 _0109_
*274 _0110_
*275 _0111_
*276 _0112_
*277 _0113_
*278 _0114_
*279 _0115_
*280 _0116_
*281 _0117_
*282 _0118_
*283 _0119_
*284 _0120_
*285 _0121_
*286 _0122_
*287 _0123_
*288 _0124_
*289 _0125_
*290 _0126_
*291 _0127_
*292 _0128_
*293 _0129_
*294 _0130_
*295 _0131_
*296 _0132_
*297 _0133_
*298 _0134_
*299 _0135_
*300 _0136_
*301 _0137_
*302 _0138_
*303 _0139_
*304 _0140_
*305 _0141_
*306 _0142_
*307 _0143_
*308 _0144_
*309 _0145_
*310 _0146_
*311 _0147_
*312 _0148_
*313 _0149_
*314 _0150_
*315 _0151_
*316 _0152_
*317 _0153_
*318 _0154_
*319 _0155_
*320 _0156_
*321 _0157_
*322 _0158_
*323 _0159_
*324 _0160_
*325 _0161_
*326 _0162_
*327 _0163_
*328 _0164_
*329 _0165_
*330 _0166_
*331 _0167_
*332 _0168_
*333 _0169_
*334 _0170_
*335 _0171_
*336 _0172_
*337 _0173_
*338 _0174_
*339 _0175_
*340 _0176_
*341 _0177_
*342 _0178_
*343 _0179_
*344 _0180_
*345 _0181_
*346 _0182_
*347 _0183_
*348 _0184_
*349 _0185_
*350 _0186_
*351 _0187_
*352 _0188_
*353 _0189_
*354 _0190_
*355 _0191_
*356 _0192_
*357 _0193_
*358 _0194_
*359 _0195_
*360 _0196_
*361 _0197_
*362 _0198_
*363 _0199_
*364 _0200_
*365 _0201_
*366 _0202_
*367 _0203_
*368 _0204_
*369 _0205_
*370 _0206_
*371 _0207_
*372 _0208_
*373 _0209_
*374 _0210_
*375 _0211_
*376 _0212_
*377 _0213_
*378 _0214_
*379 _0215_
*380 _0216_
*381 _0217_
*382 _0218_
*383 _0219_
*384 _0220_
*385 _0221_
*386 _0222_
*387 _0223_
*388 _0224_
*389 _0225_
*390 _0226_
*391 _0227_
*392 _0228_
*393 _0229_
*394 _0230_
*395 _0231_
*396 _0232_
*397 _0233_
*398 _0234_
*399 _0235_
*400 _0236_
*401 _0237_
*402 _0238_
*403 _0239_
*404 _0240_
*405 _0241_
*406 _0242_
*407 _0243_
*408 _0244_
*409 _0245_
*410 _0246_
*411 _0247_
*412 _0248_
*413 _0249_
*414 _0250_
*415 _0251_
*416 _0252_
*417 _0253_
*418 _0254_
*419 _0255_
*420 _0256_
*421 _0257_
*422 _0258_
*423 _0259_
*424 _0260_
*425 _0261_
*426 _0262_
*427 _0263_
*428 _0264_
*429 _0265_
*430 _0266_
*431 _0267_
*432 _0268_
*433 _0269_
*434 _0270_
*435 _0271_
*436 _0272_
*437 _0273_
*438 _0274_
*439 _0275_
*440 _0276_
*441 _0277_
*442 _0278_
*443 _0279_
*444 _0280_
*445 _0281_
*446 _0282_
*447 _0283_
*448 _0284_
*449 _0285_
*450 _0286_
*451 _0287_
*452 _0288_
*453 _0289_
*454 _0290_
*455 _0291_
*456 _0292_
*457 _0293_
*458 _0294_
*459 _0295_
*460 _0296_
*461 _0297_
*462 _0298_
*463 _0299_
*464 _0300_
*465 _0301_
*466 _0302_
*467 _0303_
*468 _0304_
*469 _0305_
*470 _0306_
*471 _0307_
*472 _0308_
*473 _0309_
*474 _0310_
*475 _0311_
*476 _0312_
*477 _0313_
*478 _0314_
*479 _0315_
*480 _0316_
*481 _0317_
*482 _0318_
*483 _0319_
*484 _0320_
*485 _0321_
*486 _0322_
*487 _0323_
*488 _0324_
*489 _0325_
*490 _0326_
*491 _0327_
*492 _0328_
*493 _0329_
*494 _0330_
*495 _0331_
*496 _0332_
*497 _0333_
*498 _0334_
*499 _0335_
*500 _0336_
*501 _0337_
*502 _0338_
*503 _0339_
*504 _0340_
*505 _0341_
*506 _0342_
*507 _0343_
*508 _0344_
*509 _0345_
*510 _0346_
*511 _0347_
*512 _0348_
*513 _0349_
*514 _0350_
*515 _0351_
*516 _0352_
*517 _0353_
*518 _0354_
*519 _0355_
*520 _0356_
*521 _0357_
*522 _0358_
*523 _0359_
*524 _0360_
*525 _0361_
*526 _0362_
*527 _0363_
*528 _0364_
*529 _0365_
*530 _0366_
*531 _0367_
*532 _0368_
*533 _0369_
*534 _0370_
*535 _0371_
*536 _0372_
*537 _0373_
*538 _0374_
*539 _0375_
*540 _0376_
*541 _0377_
*542 _0378_
*543 _0379_
*544 _0380_
*545 _0381_
*546 _0382_
*547 _0383_
*548 _0384_
*549 _0385_
*550 _0386_
*551 _0387_
*552 _0388_
*553 _0389_
*554 _0390_
*555 _0391_
*556 _0392_
*557 _0393_
*558 _0394_
*559 _0395_
*560 _0396_
*561 _0397_
*562 _0398_
*563 _0399_
*564 _0400_
*565 _0401_
*566 _0402_
*567 _0403_
*568 _0404_
*569 _0405_
*570 _0406_
*571 _0407_
*572 _0408_
*573 _0409_
*574 _0410_
*575 _0411_
*576 _0412_
*577 _0413_
*578 _0414_
*579 _0415_
*580 _0416_
*581 _0417_
*582 _0418_
*583 _0419_
*584 _0420_
*585 _0421_
*586 _0422_
*587 _0423_
*588 _0424_
*589 _0425_
*590 _0426_
*591 _0427_
*592 _0428_
*593 _0429_
*594 _0430_
*595 _0431_
*596 _0432_
*597 _0433_
*598 _0434_
*599 _0435_
*600 _0436_
*601 _0437_
*602 _0438_
*603 _0439_
*604 _0440_
*605 _0441_
*606 _0442_
*607 _0443_
*608 _0444_
*609 _0445_
*610 _0446_
*611 _0447_
*612 _0448_
*613 _0449_
*614 _0450_
*615 _0451_
*616 _0452_
*617 _0453_
*618 _0454_
*619 _0455_
*620 _0456_
*621 _0457_
*622 _0458_
*623 _0459_
*624 _0460_
*625 _0461_
*626 _0462_
*627 _0463_
*628 _0464_
*629 _0465_
*630 _0466_
*631 _0467_
*632 _0468_
*633 _0469_
*634 _0470_
*635 _0471_
*636 _0472_
*637 _0473_
*638 _0474_
*639 _0475_
*640 _0476_
*641 _0477_
*642 _0478_
*643 _0479_
*644 _0480_
*645 _0481_
*646 _0482_
*647 _0483_
*648 _0484_
*649 _0485_
*650 _0486_
*651 _0487_
*652 _0488_
*653 _0489_
*654 _0490_
*655 _0491_
*656 _0492_
*657 _0493_
*658 _0494_
*659 _0495_
*660 _0496_
*661 _0497_
*662 _0498_
*663 _0499_
*664 _0500_
*665 _0501_
*666 _0502_
*667 _0503_
*668 clknet_0_CIRCUIT_0\.int_memory_1\.GATES_21\.result
*669 clknet_0_CIRCUIT_0\.int_memory_1\.GATES_22\.result
*670 clknet_0_CIRCUIT_0\.int_memory_1\.GATES_23\.result
*671 clknet_0_CIRCUIT_0\.int_memory_1\.GATES_24\.result
*672 clknet_0_CIRCUIT_0\.int_memory_1\.GATES_25\.result
*673 clknet_0_CIRCUIT_0\.int_memory_1\.GATES_26\.result
*674 clknet_0_CIRCUIT_0\.int_memory_1\.GATES_27\.result
*675 clknet_0_CIRCUIT_0\.int_memory_1\.GATES_28\.result
*676 clknet_0_CIRCUIT_0\.int_memory_1\.GATES_29\.result
*677 clknet_0_CIRCUIT_0\.int_memory_1\.GATES_30\.result
*678 clknet_0_CIRCUIT_0\.int_memory_1\.GATES_31\.result
*679 clknet_0_CIRCUIT_0\.int_memory_1\.GATES_32\.result
*680 clknet_0_CIRCUIT_0\.int_memory_1\.GATES_33\.result
*681 clknet_0_CIRCUIT_0\.int_memory_1\.GATES_50\.result
*682 clknet_0_CIRCUIT_0\.int_memory_1\.GATES_53\.result
*683 clknet_0__0081_
*684 clknet_0__0082_
*685 clknet_0__0471_
*686 clknet_0__0477_
*687 clknet_0_io_in[0]
*688 clknet_1_0__leaf_CIRCUIT_0\.int_memory_1\.GATES_21\.result
*689 clknet_1_0__leaf_CIRCUIT_0\.int_memory_1\.GATES_22\.result
*690 clknet_1_0__leaf_CIRCUIT_0\.int_memory_1\.GATES_23\.result
*691 clknet_1_0__leaf_CIRCUIT_0\.int_memory_1\.GATES_24\.result
*692 clknet_1_0__leaf_CIRCUIT_0\.int_memory_1\.GATES_25\.result
*693 clknet_1_0__leaf_CIRCUIT_0\.int_memory_1\.GATES_26\.result
*694 clknet_1_0__leaf_CIRCUIT_0\.int_memory_1\.GATES_27\.result
*695 clknet_1_0__leaf_CIRCUIT_0\.int_memory_1\.GATES_28\.result
*696 clknet_1_0__leaf_CIRCUIT_0\.int_memory_1\.GATES_29\.result
*697 clknet_1_0__leaf_CIRCUIT_0\.int_memory_1\.GATES_30\.result
*698 clknet_1_0__leaf_CIRCUIT_0\.int_memory_1\.GATES_31\.result
*699 clknet_1_0__leaf_CIRCUIT_0\.int_memory_1\.GATES_32\.result
*700 clknet_1_0__leaf_CIRCUIT_0\.int_memory_1\.GATES_33\.result
*701 clknet_1_0__leaf_CIRCUIT_0\.int_memory_1\.GATES_50\.result
*702 clknet_1_0__leaf_CIRCUIT_0\.int_memory_1\.GATES_53\.result
*703 clknet_1_0__leaf__0081_
*704 clknet_1_0__leaf__0082_
*705 clknet_1_0__leaf__0471_
*706 clknet_1_0__leaf__0477_
*707 clknet_1_0__leaf_io_in[0]
*708 clknet_1_1__leaf_CIRCUIT_0\.int_memory_1\.GATES_21\.result
*709 clknet_1_1__leaf_CIRCUIT_0\.int_memory_1\.GATES_22\.result
*710 clknet_1_1__leaf_CIRCUIT_0\.int_memory_1\.GATES_23\.result
*711 clknet_1_1__leaf_CIRCUIT_0\.int_memory_1\.GATES_24\.result
*712 clknet_1_1__leaf_CIRCUIT_0\.int_memory_1\.GATES_25\.result
*713 clknet_1_1__leaf_CIRCUIT_0\.int_memory_1\.GATES_26\.result
*714 clknet_1_1__leaf_CIRCUIT_0\.int_memory_1\.GATES_27\.result
*715 clknet_1_1__leaf_CIRCUIT_0\.int_memory_1\.GATES_28\.result
*716 clknet_1_1__leaf_CIRCUIT_0\.int_memory_1\.GATES_29\.result
*717 clknet_1_1__leaf_CIRCUIT_0\.int_memory_1\.GATES_30\.result
*718 clknet_1_1__leaf_CIRCUIT_0\.int_memory_1\.GATES_31\.result
*719 clknet_1_1__leaf_CIRCUIT_0\.int_memory_1\.GATES_32\.result
*720 clknet_1_1__leaf_CIRCUIT_0\.int_memory_1\.GATES_33\.result
*721 clknet_1_1__leaf_CIRCUIT_0\.int_memory_1\.GATES_50\.result
*722 clknet_1_1__leaf_CIRCUIT_0\.int_memory_1\.GATES_53\.result
*723 clknet_1_1__leaf__0081_
*724 clknet_1_1__leaf__0082_
*725 clknet_1_1__leaf__0471_
*726 clknet_1_1__leaf__0477_
*727 clknet_1_1__leaf_io_in[0]
*728 net1
*729 net2
*730 net3
*731 net4
*732 net5
*733 net6
*734 net7
*735 ANTENNA_1
*736 ANTENNA_2
*737 ANTENNA_3
*738 FILLER_0_106
*739 FILLER_0_113
*740 FILLER_0_118
*741 FILLER_0_12
*742 FILLER_0_125
*743 FILLER_0_132
*744 FILLER_0_141
*745 FILLER_0_146
*746 FILLER_0_151
*747 FILLER_0_155
*748 FILLER_0_160
*749 FILLER_0_169
*750 FILLER_0_174
*751 FILLER_0_186
*752 FILLER_0_194
*753 FILLER_0_197
*754 FILLER_0_20
*755 FILLER_0_209
*756 FILLER_0_221
*757 FILLER_0_225
*758 FILLER_0_237
*759 FILLER_0_249
*760 FILLER_0_253
*761 FILLER_0_265
*762 FILLER_0_277
*763 FILLER_0_281
*764 FILLER_0_29
*765 FILLER_0_293
*766 FILLER_0_3
*767 FILLER_0_35
*768 FILLER_0_39
*769 FILLER_0_46
*770 FILLER_0_54
*771 FILLER_0_57
*772 FILLER_0_63
*773 FILLER_0_74
*774 FILLER_0_82
*775 FILLER_0_85
*776 FILLER_0_92
*777 FILLER_0_99
*778 FILLER_10_121
*779 FILLER_10_132
*780 FILLER_10_141
*781 FILLER_10_150
*782 FILLER_10_159
*783 FILLER_10_166
*784 FILLER_10_175
*785 FILLER_10_190
*786 FILLER_10_197
*787 FILLER_10_20
*788 FILLER_10_206
*789 FILLER_10_215
*790 FILLER_10_225
*791 FILLER_10_233
*792 FILLER_10_241
*793 FILLER_10_248
*794 FILLER_10_253
*795 FILLER_10_261
*796 FILLER_10_268
*797 FILLER_10_280
*798 FILLER_10_29
*799 FILLER_10_292
*800 FILLER_10_298
*801 FILLER_10_3
*802 FILLER_10_41
*803 FILLER_10_65
*804 FILLER_10_78
*805 FILLER_10_85
*806 FILLER_10_9
*807 FILLER_10_97
*808 FILLER_11_110
*809 FILLER_11_113
*810 FILLER_11_131
*811 FILLER_11_141
*812 FILLER_11_155
*813 FILLER_11_164
*814 FILLER_11_169
*815 FILLER_11_175
*816 FILLER_11_181
*817 FILLER_11_186
*818 FILLER_11_196
*819 FILLER_11_204
*820 FILLER_11_214
*821 FILLER_11_222
*822 FILLER_11_225
*823 FILLER_11_236
*824 FILLER_11_242
*825 FILLER_11_250
*826 FILLER_11_257
*827 FILLER_11_269
*828 FILLER_11_277
*829 FILLER_11_28
*830 FILLER_11_281
*831 FILLER_11_293
*832 FILLER_11_3
*833 FILLER_11_52
*834 FILLER_11_57
*835 FILLER_11_62
*836 FILLER_11_7
*837 FILLER_11_71
*838 FILLER_11_80
*839 FILLER_11_90
*840 FILLER_12_121
*841 FILLER_12_127
*842 FILLER_12_135
*843 FILLER_12_139
*844 FILLER_12_141
*845 FILLER_12_146
*846 FILLER_12_156
*847 FILLER_12_166
*848 FILLER_12_177
*849 FILLER_12_190
*850 FILLER_12_197
*851 FILLER_12_206
*852 FILLER_12_217
*853 FILLER_12_226
*854 FILLER_12_233
*855 FILLER_12_241
*856 FILLER_12_249
*857 FILLER_12_253
*858 FILLER_12_26
*859 FILLER_12_263
*860 FILLER_12_275
*861 FILLER_12_287
*862 FILLER_12_29
*863 FILLER_12_3
*864 FILLER_12_41
*865 FILLER_12_65
*866 FILLER_12_76
*867 FILLER_12_85
*868 FILLER_12_95
*869 FILLER_13_110
*870 FILLER_13_113
*871 FILLER_13_117
*872 FILLER_13_12
*873 FILLER_13_125
*874 FILLER_13_145
*875 FILLER_13_156
*876 FILLER_13_165
*877 FILLER_13_169
*878 FILLER_13_179
*879 FILLER_13_186
*880 FILLER_13_197
*881 FILLER_13_208
*882 FILLER_13_212
*883 FILLER_13_218
*884 FILLER_13_225
*885 FILLER_13_234
*886 FILLER_13_242
*887 FILLER_13_249
*888 FILLER_13_266
*889 FILLER_13_273
*890 FILLER_13_279
*891 FILLER_13_281
*892 FILLER_13_293
*893 FILLER_13_3
*894 FILLER_13_40
*895 FILLER_13_54
*896 FILLER_13_57
*897 FILLER_13_66
*898 FILLER_13_76
*899 FILLER_13_90
*900 FILLER_14_104
*901 FILLER_14_117
*902 FILLER_14_121
*903 FILLER_14_138
*904 FILLER_14_141
*905 FILLER_14_161
*906 FILLER_14_172
*907 FILLER_14_188
*908 FILLER_14_197
*909 FILLER_14_204
*910 FILLER_14_213
*911 FILLER_14_222
*912 FILLER_14_236
*913 FILLER_14_250
*914 FILLER_14_253
*915 FILLER_14_26
*916 FILLER_14_263
*917 FILLER_14_270
*918 FILLER_14_277
*919 FILLER_14_289
*920 FILLER_14_29
*921 FILLER_14_297
*922 FILLER_14_3
*923 FILLER_14_38
*924 FILLER_14_45
*925 FILLER_14_56
*926 FILLER_14_80
*927 FILLER_14_85
*928 FILLER_15_106
*929 FILLER_15_113
*930 FILLER_15_117
*931 FILLER_15_12
*932 FILLER_15_125
*933 FILLER_15_149
*934 FILLER_15_161
*935 FILLER_15_167
*936 FILLER_15_169
*937 FILLER_15_177
*938 FILLER_15_185
*939 FILLER_15_206
*940 FILLER_15_21
*941 FILLER_15_215
*942 FILLER_15_222
*943 FILLER_15_225
*944 FILLER_15_235
*945 FILLER_15_239
*946 FILLER_15_248
*947 FILLER_15_257
*948 FILLER_15_264
*949 FILLER_15_271
*950 FILLER_15_279
*951 FILLER_15_281
*952 FILLER_15_293
*953 FILLER_15_3
*954 FILLER_15_45
*955 FILLER_15_54
*956 FILLER_15_57
*957 FILLER_15_63
*958 FILLER_15_69
*959 FILLER_15_93
*960 FILLER_16_100
*961 FILLER_16_121
*962 FILLER_16_134
*963 FILLER_16_141
*964 FILLER_16_15
*965 FILLER_16_163
*966 FILLER_16_187
*967 FILLER_16_194
*968 FILLER_16_197
*969 FILLER_16_214
*970 FILLER_16_222
*971 FILLER_16_237
*972 FILLER_16_247
*973 FILLER_16_251
*974 FILLER_16_253
*975 FILLER_16_259
*976 FILLER_16_26
*977 FILLER_16_266
*978 FILLER_16_278
*979 FILLER_16_29
*980 FILLER_16_290
*981 FILLER_16_298
*982 FILLER_16_3
*983 FILLER_16_36
*984 FILLER_16_45
*985 FILLER_16_58
*986 FILLER_16_82
*987 FILLER_16_85
*988 FILLER_16_96
*989 FILLER_17_110
*990 FILLER_17_113
*991 FILLER_17_125
*992 FILLER_17_149
*993 FILLER_17_159
*994 FILLER_17_166
*995 FILLER_17_169
*996 FILLER_17_175
*997 FILLER_17_182
*998 FILLER_17_206
*999 FILLER_17_216
*1000 FILLER_17_225
*1001 FILLER_17_229
*1002 FILLER_17_238
*1003 FILLER_17_249
*1004 FILLER_17_25
*1005 FILLER_17_263
*1006 FILLER_17_273
*1007 FILLER_17_279
*1008 FILLER_17_281
*1009 FILLER_17_293
*1010 FILLER_17_3
*1011 FILLER_17_33
*1012 FILLER_17_40
*1013 FILLER_17_54
*1014 FILLER_17_57
*1015 FILLER_17_80
*1016 FILLER_17_88
*1017 FILLER_18_121
*1018 FILLER_18_131
*1019 FILLER_18_138
*1020 FILLER_18_141
*1021 FILLER_18_150
*1022 FILLER_18_158
*1023 FILLER_18_179
*1024 FILLER_18_189
*1025 FILLER_18_195
*1026 FILLER_18_197
*1027 FILLER_18_205
*1028 FILLER_18_213
*1029 FILLER_18_225
*1030 FILLER_18_235
*1031 FILLER_18_244
*1032 FILLER_18_25
*1033 FILLER_18_253
*1034 FILLER_18_259
*1035 FILLER_18_270
*1036 FILLER_18_279
*1037 FILLER_18_286
*1038 FILLER_18_29
*1039 FILLER_18_298
*1040 FILLER_18_3
*1041 FILLER_18_36
*1042 FILLER_18_45
*1043 FILLER_18_58
*1044 FILLER_18_82
*1045 FILLER_18_85
*1046 FILLER_18_97
*1047 FILLER_19_110
*1048 FILLER_19_113
*1049 FILLER_19_122
*1050 FILLER_19_148
*1051 FILLER_19_158
*1052 FILLER_19_16
*1053 FILLER_19_166
*1054 FILLER_19_169
*1055 FILLER_19_187
*1056 FILLER_19_20
*1057 FILLER_19_207
*1058 FILLER_19_217
*1059 FILLER_19_223
*1060 FILLER_19_225
*1061 FILLER_19_233
*1062 FILLER_19_241
*1063 FILLER_19_254
*1064 FILLER_19_262
*1065 FILLER_19_275
*1066 FILLER_19_279
*1067 FILLER_19_281
*1068 FILLER_19_286
*1069 FILLER_19_293
*1070 FILLER_19_3
*1071 FILLER_19_37
*1072 FILLER_19_41
*1073 FILLER_19_54
*1074 FILLER_19_57
*1075 FILLER_19_61
*1076 FILLER_19_72
*1077 FILLER_19_96
*1078 FILLER_1_10
*1079 FILLER_1_102
*1080 FILLER_1_109
*1081 FILLER_1_113
*1082 FILLER_1_118
*1083 FILLER_1_127
*1084 FILLER_1_131
*1085 FILLER_1_135
*1086 FILLER_1_142
*1087 FILLER_1_149
*1088 FILLER_1_156
*1089 FILLER_1_163
*1090 FILLER_1_167
*1091 FILLER_1_169
*1092 FILLER_1_181
*1093 FILLER_1_193
*1094 FILLER_1_205
*1095 FILLER_1_21
*1096 FILLER_1_217
*1097 FILLER_1_223
*1098 FILLER_1_225
*1099 FILLER_1_237
*1100 FILLER_1_249
*1101 FILLER_1_261
*1102 FILLER_1_273
*1103 FILLER_1_279
*1104 FILLER_1_281
*1105 FILLER_1_293
*1106 FILLER_1_3
*1107 FILLER_1_30
*1108 FILLER_1_39
*1109 FILLER_1_47
*1110 FILLER_1_54
*1111 FILLER_1_57
*1112 FILLER_1_66
*1113 FILLER_1_73
*1114 FILLER_1_83
*1115 FILLER_1_95
*1116 FILLER_20_114
*1117 FILLER_20_13
*1118 FILLER_20_138
*1119 FILLER_20_141
*1120 FILLER_20_146
*1121 FILLER_20_166
*1122 FILLER_20_170
*1123 FILLER_20_187
*1124 FILLER_20_194
*1125 FILLER_20_197
*1126 FILLER_20_216
*1127 FILLER_20_225
*1128 FILLER_20_233
*1129 FILLER_20_244
*1130 FILLER_20_253
*1131 FILLER_20_26
*1132 FILLER_20_268
*1133 FILLER_20_275
*1134 FILLER_20_282
*1135 FILLER_20_289
*1136 FILLER_20_29
*1137 FILLER_20_296
*1138 FILLER_20_3
*1139 FILLER_20_52
*1140 FILLER_20_7
*1141 FILLER_20_76
*1142 FILLER_20_85
*1143 FILLER_20_93
*1144 FILLER_21_110
*1145 FILLER_21_113
*1146 FILLER_21_125
*1147 FILLER_21_149
*1148 FILLER_21_156
*1149 FILLER_21_166
*1150 FILLER_21_169
*1151 FILLER_21_187
*1152 FILLER_21_191
*1153 FILLER_21_209
*1154 FILLER_21_21
*1155 FILLER_21_218
*1156 FILLER_21_225
*1157 FILLER_21_235
*1158 FILLER_21_247
*1159 FILLER_21_257
*1160 FILLER_21_271
*1161 FILLER_21_278
*1162 FILLER_21_281
*1163 FILLER_21_286
*1164 FILLER_21_293
*1165 FILLER_21_3
*1166 FILLER_21_30
*1167 FILLER_21_54
*1168 FILLER_21_57
*1169 FILLER_21_70
*1170 FILLER_21_90
*1171 FILLER_22_122
*1172 FILLER_22_130
*1173 FILLER_22_138
*1174 FILLER_22_141
*1175 FILLER_22_147
*1176 FILLER_22_156
*1177 FILLER_22_160
*1178 FILLER_22_177
*1179 FILLER_22_181
*1180 FILLER_22_189
*1181 FILLER_22_195
*1182 FILLER_22_197
*1183 FILLER_22_219
*1184 FILLER_22_22
*1185 FILLER_22_230
*1186 FILLER_22_239
*1187 FILLER_22_250
*1188 FILLER_22_253
*1189 FILLER_22_261
*1190 FILLER_22_270
*1191 FILLER_22_279
*1192 FILLER_22_286
*1193 FILLER_22_29
*1194 FILLER_22_298
*1195 FILLER_22_3
*1196 FILLER_22_41
*1197 FILLER_22_65
*1198 FILLER_22_73
*1199 FILLER_22_82
*1200 FILLER_22_85
*1201 FILLER_22_9
*1202 FILLER_22_98
*1203 FILLER_23_11
*1204 FILLER_23_110
*1205 FILLER_23_113
*1206 FILLER_23_117
*1207 FILLER_23_124
*1208 FILLER_23_144
*1209 FILLER_23_166
*1210 FILLER_23_169
*1211 FILLER_23_176
*1212 FILLER_23_186
*1213 FILLER_23_206
*1214 FILLER_23_216
*1215 FILLER_23_22
*1216 FILLER_23_225
*1217 FILLER_23_233
*1218 FILLER_23_242
*1219 FILLER_23_249
*1220 FILLER_23_260
*1221 FILLER_23_266
*1222 FILLER_23_273
*1223 FILLER_23_279
*1224 FILLER_23_281
*1225 FILLER_23_286
*1226 FILLER_23_298
*1227 FILLER_23_3
*1228 FILLER_23_30
*1229 FILLER_23_51
*1230 FILLER_23_55
*1231 FILLER_23_57
*1232 FILLER_23_85
*1233 FILLER_23_93
*1234 FILLER_24_100
*1235 FILLER_24_117
*1236 FILLER_24_127
*1237 FILLER_24_137
*1238 FILLER_24_141
*1239 FILLER_24_153
*1240 FILLER_24_177
*1241 FILLER_24_187
*1242 FILLER_24_194
*1243 FILLER_24_197
*1244 FILLER_24_21
*1245 FILLER_24_216
*1246 FILLER_24_226
*1247 FILLER_24_235
*1248 FILLER_24_244
*1249 FILLER_24_253
*1250 FILLER_24_262
*1251 FILLER_24_27
*1252 FILLER_24_270
*1253 FILLER_24_277
*1254 FILLER_24_284
*1255 FILLER_24_29
*1256 FILLER_24_296
*1257 FILLER_24_3
*1258 FILLER_24_35
*1259 FILLER_24_45
*1260 FILLER_24_53
*1261 FILLER_24_77
*1262 FILLER_24_83
*1263 FILLER_24_85
*1264 FILLER_24_96
*1265 FILLER_25_106
*1266 FILLER_25_113
*1267 FILLER_25_122
*1268 FILLER_25_128
*1269 FILLER_25_149
*1270 FILLER_25_158
*1271 FILLER_25_166
*1272 FILLER_25_169
*1273 FILLER_25_177
*1274 FILLER_25_185
*1275 FILLER_25_206
*1276 FILLER_25_210
*1277 FILLER_25_219
*1278 FILLER_25_223
*1279 FILLER_25_225
*1280 FILLER_25_239
*1281 FILLER_25_250
*1282 FILLER_25_258
*1283 FILLER_25_267
*1284 FILLER_25_274
*1285 FILLER_25_28
*1286 FILLER_25_281
*1287 FILLER_25_286
*1288 FILLER_25_298
*1289 FILLER_25_3
*1290 FILLER_25_48
*1291 FILLER_25_57
*1292 FILLER_25_63
*1293 FILLER_25_69
*1294 FILLER_25_78
*1295 FILLER_25_8
*1296 FILLER_25_87
*1297 FILLER_25_96
*1298 FILLER_26_121
*1299 FILLER_26_133
*1300 FILLER_26_139
*1301 FILLER_26_141
*1302 FILLER_26_149
*1303 FILLER_26_157
*1304 FILLER_26_178
*1305 FILLER_26_191
*1306 FILLER_26_195
*1307 FILLER_26_197
*1308 FILLER_26_208
*1309 FILLER_26_218
*1310 FILLER_26_222
*1311 FILLER_26_231
*1312 FILLER_26_239
*1313 FILLER_26_248
*1314 FILLER_26_253
*1315 FILLER_26_259
*1316 FILLER_26_26
*1317 FILLER_26_272
*1318 FILLER_26_279
*1319 FILLER_26_286
*1320 FILLER_26_29
*1321 FILLER_26_298
*1322 FILLER_26_3
*1323 FILLER_26_38
*1324 FILLER_26_63
*1325 FILLER_26_67
*1326 FILLER_26_73
*1327 FILLER_26_82
*1328 FILLER_26_85
*1329 FILLER_26_89
*1330 FILLER_26_9
*1331 FILLER_26_97
*1332 FILLER_27_104
*1333 FILLER_27_113
*1334 FILLER_27_123
*1335 FILLER_27_149
*1336 FILLER_27_158
*1337 FILLER_27_166
*1338 FILLER_27_169
*1339 FILLER_27_177
*1340 FILLER_27_185
*1341 FILLER_27_206
*1342 FILLER_27_216
*1343 FILLER_27_225
*1344 FILLER_27_234
*1345 FILLER_27_242
*1346 FILLER_27_257
*1347 FILLER_27_268
*1348 FILLER_27_28
*1349 FILLER_27_281
*1350 FILLER_27_293
*1351 FILLER_27_3
*1352 FILLER_27_36
*1353 FILLER_27_54
*1354 FILLER_27_57
*1355 FILLER_27_8
*1356 FILLER_27_80
*1357 FILLER_28_100
*1358 FILLER_28_121
*1359 FILLER_28_129
*1360 FILLER_28_137
*1361 FILLER_28_141
*1362 FILLER_28_150
*1363 FILLER_28_161
*1364 FILLER_28_169
*1365 FILLER_28_17
*1366 FILLER_28_187
*1367 FILLER_28_194
*1368 FILLER_28_197
*1369 FILLER_28_215
*1370 FILLER_28_226
*1371 FILLER_28_236
*1372 FILLER_28_246
*1373 FILLER_28_253
*1374 FILLER_28_259
*1375 FILLER_28_26
*1376 FILLER_28_266
*1377 FILLER_28_278
*1378 FILLER_28_29
*1379 FILLER_28_290
*1380 FILLER_28_298
*1381 FILLER_28_3
*1382 FILLER_28_35
*1383 FILLER_28_41
*1384 FILLER_28_65
*1385 FILLER_28_73
*1386 FILLER_28_82
*1387 FILLER_28_85
*1388 FILLER_28_9
*1389 FILLER_28_94
*1390 FILLER_29_110
*1391 FILLER_29_113
*1392 FILLER_29_117
*1393 FILLER_29_125
*1394 FILLER_29_136
*1395 FILLER_29_142
*1396 FILLER_29_149
*1397 FILLER_29_15
*1398 FILLER_29_156
*1399 FILLER_29_166
*1400 FILLER_29_169
*1401 FILLER_29_187
*1402 FILLER_29_207
*1403 FILLER_29_222
*1404 FILLER_29_225
*1405 FILLER_29_237
*1406 FILLER_29_247
*1407 FILLER_29_254
*1408 FILLER_29_266
*1409 FILLER_29_278
*1410 FILLER_29_281
*1411 FILLER_29_293
*1412 FILLER_29_3
*1413 FILLER_29_35
*1414 FILLER_29_39
*1415 FILLER_29_45
*1416 FILLER_29_54
*1417 FILLER_29_57
*1418 FILLER_29_62
*1419 FILLER_29_71
*1420 FILLER_29_8
*1421 FILLER_29_80
*1422 FILLER_29_90
*1423 FILLER_2_105
*1424 FILLER_2_112
*1425 FILLER_2_119
*1426 FILLER_2_12
*1427 FILLER_2_126
*1428 FILLER_2_133
*1429 FILLER_2_139
*1430 FILLER_2_141
*1431 FILLER_2_146
*1432 FILLER_2_153
*1433 FILLER_2_160
*1434 FILLER_2_167
*1435 FILLER_2_174
*1436 FILLER_2_186
*1437 FILLER_2_194
*1438 FILLER_2_197
*1439 FILLER_2_209
*1440 FILLER_2_21
*1441 FILLER_2_221
*1442 FILLER_2_233
*1443 FILLER_2_245
*1444 FILLER_2_251
*1445 FILLER_2_253
*1446 FILLER_2_265
*1447 FILLER_2_27
*1448 FILLER_2_277
*1449 FILLER_2_289
*1450 FILLER_2_29
*1451 FILLER_2_297
*1452 FILLER_2_3
*1453 FILLER_2_36
*1454 FILLER_2_40
*1455 FILLER_2_48
*1456 FILLER_2_56
*1457 FILLER_2_66
*1458 FILLER_2_74
*1459 FILLER_2_81
*1460 FILLER_2_85
*1461 FILLER_2_90
*1462 FILLER_2_98
*1463 FILLER_30_11
*1464 FILLER_30_118
*1465 FILLER_30_138
*1466 FILLER_30_141