*SPEF "ieee 1481-1999"
*DESIGN "tholin_avalonsemi_tbb1143"
*DATE "11:11:11 Fri 11 11, 1111"
*VENDOR "OpenRCX"
*PROGRAM "Parallel Extraction"
*VERSION "1.0"
*DESIGN_FLOW "NAME_SCOPE LOCAL" "PIN_CAP NONE"
*DIVIDER /
*DELIMITER :
*BUS_DELIMITER []
*T_UNIT 1 NS
*C_UNIT 1 PF
*R_UNIT 1 OHM
*L_UNIT 1 HENRY

*NAME_MAP
*1 io_in[0]
*2 io_in[1]
*3 io_in[2]
*4 io_in[3]
*5 io_in[4]
*6 io_in[5]
*7 io_in[6]
*8 io_in[7]
*9 io_out[0]
*10 io_out[1]
*11 io_out[2]
*12 io_out[3]
*13 io_out[4]
*14 io_out[5]
*15 io_out[6]
*16 io_out[7]
*19 CIRCUIT_0\.FCLK
*20 CIRCUIT_0\.GATES_1\.input1\[0\]
*21 CIRCUIT_0\.GATES_1\.input1\[1\]
*22 CIRCUIT_0\.GATES_1\.input1\[2\]
*23 CIRCUIT_0\.GATES_1\.input1\[3\]
*24 CIRCUIT_0\.GATES_11\.input2
*25 CIRCUIT_0\.GATES_11\.result
*26 CIRCUIT_0\.GATES_2\.input2
*27 CIRCUIT_0\.GATES_3\.input2
*28 CIRCUIT_0\.GATES_4\.input1\[0\]
*29 CIRCUIT_0\.GATES_4\.input1\[1\]
*30 CIRCUIT_0\.GATES_4\.input1\[2\]
*31 CIRCUIT_0\.GATES_4\.input1\[3\]
*32 CIRCUIT_0\.GATES_5\.input2
*33 CIRCUIT_0\.MEMORY_18\.clock
*34 CIRCUIT_0\.MEMORY_18\.d
*35 CIRCUIT_0\.MEMORY_18\.s_currentState
*36 CIRCUIT_0\.MEMORY_19\.d
*37 CIRCUIT_0\.MEMORY_19\.s_currentState
*38 CIRCUIT_0\.MEMORY_20\.d
*39 CIRCUIT_0\.MEMORY_20\.s_currentState
*40 CIRCUIT_0\.MEMORY_21\.d
*41 CIRCUIT_0\.MEMORY_21\.s_currentState
*42 CIRCUIT_0\.MEMORY_22\.d
*43 CIRCUIT_0\.MEMORY_22\.s_currentState
*44 CIRCUIT_0\.MEMORY_23\.s_currentState
*45 CIRCUIT_0\.MEMORY_24\.d
*46 CIRCUIT_0\.MEMORY_24\.s_currentState
*47 CIRCUIT_0\.MEMORY_25\.d
*48 CIRCUIT_0\.MEMORY_25\.s_currentState
*49 CIRCUIT_0\.MEMORY_26\.s_currentState
*50 CIRCUIT_0\.MEMORY_28\.s_currentState
*51 CIRCUIT_0\.MEMORY_29\.s_currentState
*52 CIRCUIT_0\.S0
*53 CIRCUIT_0\.S1
*54 CIRCUIT_0\.S2
*55 CIRCUIT_0\.S3
*56 CIRCUIT_0\.S4
*57 CIRCUIT_0\.S5
*58 CIRCUIT_0\.s_logisimNet48
*59 CIRCUIT_0\.tone_generator_1\.GATES_1\.result
*60 CIRCUIT_0\.tone_generator_1\.GATES_2\.result
*61 CIRCUIT_0\.tone_generator_1\.GATES_3\.result
*62 CIRCUIT_0\.tone_generator_1\.MEMORY_10\.s_currentState
*63 CIRCUIT_0\.tone_generator_1\.MEMORY_11\.s_currentState
*64 CIRCUIT_0\.tone_generator_1\.MEMORY_12\.s_currentState
*65 CIRCUIT_0\.tone_generator_1\.MEMORY_13\.s_currentState
*66 CIRCUIT_0\.tone_generator_1\.MEMORY_14\.s_currentState
*67 CIRCUIT_0\.tone_generator_1\.MEMORY_15\.s_currentState
*68 CIRCUIT_0\.tone_generator_1\.MEMORY_16\.s_currentState
*69 CIRCUIT_0\.tone_generator_1\.MEMORY_17\.s_currentState
*70 CIRCUIT_0\.tone_generator_1\.MEMORY_18\.s_currentState
*71 CIRCUIT_0\.tone_generator_1\.MEMORY_19\.s_currentState
*72 CIRCUIT_0\.tone_generator_1\.MEMORY_20\.s_currentState
*73 CIRCUIT_0\.tone_generator_1\.MEMORY_4\.s_currentState
*74 CIRCUIT_0\.tone_generator_1\.MEMORY_6\.s_currentState
*75 CIRCUIT_0\.tone_generator_1\.MEMORY_7\.s_currentState
*76 CIRCUIT_0\.tone_generator_1\.MEMORY_8\.s_currentState
*77 CIRCUIT_0\.tone_generator_1\.MEMORY_9\.s_currentState
*78 CIRCUIT_0\.tone_generator_1\.tone_generator_2_1\.GATES_10\.input2
*79 CIRCUIT_0\.tone_generator_1\.tone_generator_2_1\.GATES_11\.input2
*80 CIRCUIT_0\.tone_generator_1\.tone_generator_2_1\.GATES_12\.input2
*81 CIRCUIT_0\.tone_generator_1\.tone_generator_2_1\.GATES_13\.input2
*82 CIRCUIT_0\.tone_generator_1\.tone_generator_2_1\.GATES_14\.input2
*83 CIRCUIT_0\.tone_generator_1\.tone_generator_2_1\.GATES_15\.input2
*84 CIRCUIT_0\.tone_generator_1\.tone_generator_2_1\.GATES_16\.input2
*85 CIRCUIT_0\.tone_generator_1\.tone_generator_2_1\.GATES_17\.input2
*86 CIRCUIT_0\.tone_generator_1\.tone_generator_2_1\.GATES_27\.result
*87 CIRCUIT_0\.tone_generator_1\.tone_generator_2_1\.GATES_4\.input1
*88 CIRCUIT_0\.tone_generator_1\.tone_generator_2_1\.GATES_6\.result
*89 CIRCUIT_0\.tone_generator_1\.tone_generator_2_1\.GATES_7\.input2
*90 CIRCUIT_0\.tone_generator_1\.tone_generator_2_1\.GATES_8\.input2
*91 CIRCUIT_0\.tone_generator_1\.tone_generator_2_1\.GATES_9\.input2
*92 CIRCUIT_0\.tone_generator_1\.tone_generator_2_1\.MEMORY_28\.clock
*93 CIRCUIT_0\.tone_generator_1\.tone_generator_2_1\.MEMORY_28\.d
*94 CIRCUIT_0\.tone_generator_1\.tone_generator_2_1\.MEMORY_28\.s_currentState
*95 CIRCUIT_0\.tone_generator_1\.tone_generator_2_1\.MEMORY_29\.d
*96 CIRCUIT_0\.tone_generator_1\.tone_generator_2_1\.MEMORY_29\.s_currentState
*97 CIRCUIT_0\.tone_generator_1\.tone_generator_2_1\.MEMORY_30\.d
*98 CIRCUIT_0\.tone_generator_1\.tone_generator_2_1\.MEMORY_30\.s_currentState
*99 CIRCUIT_0\.tone_generator_1\.tone_generator_2_1\.MEMORY_31\.d
*100 CIRCUIT_0\.tone_generator_1\.tone_generator_2_1\.MEMORY_31\.s_currentState
*101 CIRCUIT_0\.tone_generator_1\.tone_generator_2_1\.MEMORY_32\.d
*102 CIRCUIT_0\.tone_generator_1\.tone_generator_2_1\.MEMORY_32\.s_currentState
*103 CIRCUIT_0\.tone_generator_1\.tone_generator_2_1\.MEMORY_33\.d
*104 CIRCUIT_0\.tone_generator_1\.tone_generator_2_1\.MEMORY_33\.s_currentState
*105 CIRCUIT_0\.tone_generator_1\.tone_generator_2_1\.MEMORY_34\.d
*106 CIRCUIT_0\.tone_generator_1\.tone_generator_2_1\.MEMORY_34\.s_currentState
*107 CIRCUIT_0\.tone_generator_1\.tone_generator_2_1\.MEMORY_35\.d
*108 CIRCUIT_0\.tone_generator_1\.tone_generator_2_1\.MEMORY_35\.s_currentState
*109 CIRCUIT_0\.tone_generator_1\.tone_generator_2_1\.MEMORY_36\.d
*110 CIRCUIT_0\.tone_generator_1\.tone_generator_2_1\.MEMORY_36\.s_currentState
*111 CIRCUIT_0\.tone_generator_1\.tone_generator_2_1\.MEMORY_37\.d
*112 CIRCUIT_0\.tone_generator_1\.tone_generator_2_1\.MEMORY_37\.s_currentState
*113 CIRCUIT_0\.tone_generator_1\.tone_generator_2_1\.MEMORY_38\.s_currentState
*114 CIRCUIT_0\.tone_generator_1\.tone_generator_2_1\.MEMORY_39\.d
*115 CIRCUIT_0\.tone_generator_1\.tone_generator_2_1\.MEMORY_39\.s_currentState
*116 CIRCUIT_0\.tone_generator_2_1\.GATES_10\.input2
*117 CIRCUIT_0\.tone_generator_2_1\.GATES_11\.input2
*118 CIRCUIT_0\.tone_generator_2_1\.GATES_12\.input2
*119 CIRCUIT_0\.tone_generator_2_1\.GATES_13\.input2
*120 CIRCUIT_0\.tone_generator_2_1\.GATES_14\.input2
*121 CIRCUIT_0\.tone_generator_2_1\.GATES_15\.input2
*122 CIRCUIT_0\.tone_generator_2_1\.GATES_16\.input2
*123 CIRCUIT_0\.tone_generator_2_1\.GATES_17\.input2
*124 CIRCUIT_0\.tone_generator_2_1\.GATES_27\.result
*125 CIRCUIT_0\.tone_generator_2_1\.GATES_6\.result
*126 CIRCUIT_0\.tone_generator_2_1\.GATES_7\.input2
*127 CIRCUIT_0\.tone_generator_2_1\.GATES_8\.input2
*128 CIRCUIT_0\.tone_generator_2_1\.GATES_9\.input2
*129 CIRCUIT_0\.tone_generator_2_1\.MEMORY_28\.clock
*130 CIRCUIT_0\.tone_generator_2_1\.MEMORY_28\.d
*131 CIRCUIT_0\.tone_generator_2_1\.MEMORY_28\.s_currentState
*132 CIRCUIT_0\.tone_generator_2_1\.MEMORY_29\.d
*133 CIRCUIT_0\.tone_generator_2_1\.MEMORY_29\.s_currentState
*134 CIRCUIT_0\.tone_generator_2_1\.MEMORY_30\.d
*135 CIRCUIT_0\.tone_generator_2_1\.MEMORY_30\.s_currentState
*136 CIRCUIT_0\.tone_generator_2_1\.MEMORY_31\.d
*137 CIRCUIT_0\.tone_generator_2_1\.MEMORY_31\.s_currentState
*138 CIRCUIT_0\.tone_generator_2_1\.MEMORY_32\.d
*139 CIRCUIT_0\.tone_generator_2_1\.MEMORY_32\.s_currentState
*140 CIRCUIT_0\.tone_generator_2_1\.MEMORY_33\.d
*141 CIRCUIT_0\.tone_generator_2_1\.MEMORY_33\.s_currentState
*142 CIRCUIT_0\.tone_generator_2_1\.MEMORY_34\.d
*143 CIRCUIT_0\.tone_generator_2_1\.MEMORY_34\.s_currentState
*144 CIRCUIT_0\.tone_generator_2_1\.MEMORY_35\.d
*145 CIRCUIT_0\.tone_generator_2_1\.MEMORY_35\.s_currentState
*146 CIRCUIT_0\.tone_generator_2_1\.MEMORY_36\.d
*147 CIRCUIT_0\.tone_generator_2_1\.MEMORY_36\.s_currentState
*148 CIRCUIT_0\.tone_generator_2_1\.MEMORY_37\.d
*149 CIRCUIT_0\.tone_generator_2_1\.MEMORY_37\.s_currentState
*150 CIRCUIT_0\.tone_generator_2_1\.MEMORY_38\.s_currentState
*151 CIRCUIT_0\.tone_generator_2_1\.MEMORY_39\.d
*152 CIRCUIT_0\.tone_generator_2_1\.MEMORY_39\.s_currentState
*153 CIRCUIT_0\.tone_generator_2_2\.GATES_10\.input2
*154 CIRCUIT_0\.tone_generator_2_2\.GATES_11\.input2
*155 CIRCUIT_0\.tone_generator_2_2\.GATES_12\.input2
*156 CIRCUIT_0\.tone_generator_2_2\.GATES_13\.input2
*157 CIRCUIT_0\.tone_generator_2_2\.GATES_14\.input2
*158 CIRCUIT_0\.tone_generator_2_2\.GATES_15\.input2
*159 CIRCUIT_0\.tone_generator_2_2\.GATES_16\.input2
*160 CIRCUIT_0\.tone_generator_2_2\.GATES_17\.input2
*161 CIRCUIT_0\.tone_generator_2_2\.GATES_27\.result
*162 CIRCUIT_0\.tone_generator_2_2\.GATES_6\.result
*163 CIRCUIT_0\.tone_generator_2_2\.GATES_7\.input2
*164 CIRCUIT_0\.tone_generator_2_2\.GATES_8\.input2
*165 CIRCUIT_0\.tone_generator_2_2\.GATES_9\.input2
*166 CIRCUIT_0\.tone_generator_2_2\.MEMORY_28\.clock
*167 CIRCUIT_0\.tone_generator_2_2\.MEMORY_28\.d
*168 CIRCUIT_0\.tone_generator_2_2\.MEMORY_28\.s_currentState
*169 CIRCUIT_0\.tone_generator_2_2\.MEMORY_29\.d
*170 CIRCUIT_0\.tone_generator_2_2\.MEMORY_29\.s_currentState
*171 CIRCUIT_0\.tone_generator_2_2\.MEMORY_30\.d
*172 CIRCUIT_0\.tone_generator_2_2\.MEMORY_30\.s_currentState
*173 CIRCUIT_0\.tone_generator_2_2\.MEMORY_31\.d
*174 CIRCUIT_0\.tone_generator_2_2\.MEMORY_31\.s_currentState
*175 CIRCUIT_0\.tone_generator_2_2\.MEMORY_32\.d
*176 CIRCUIT_0\.tone_generator_2_2\.MEMORY_32\.s_currentState
*177 CIRCUIT_0\.tone_generator_2_2\.MEMORY_33\.d
*178 CIRCUIT_0\.tone_generator_2_2\.MEMORY_33\.s_currentState
*179 CIRCUIT_0\.tone_generator_2_2\.MEMORY_34\.d
*180 CIRCUIT_0\.tone_generator_2_2\.MEMORY_34\.s_currentState
*181 CIRCUIT_0\.tone_generator_2_2\.MEMORY_35\.d
*182 CIRCUIT_0\.tone_generator_2_2\.MEMORY_35\.s_currentState
*183 CIRCUIT_0\.tone_generator_2_2\.MEMORY_36\.d
*184 CIRCUIT_0\.tone_generator_2_2\.MEMORY_36\.s_currentState
*185 CIRCUIT_0\.tone_generator_2_2\.MEMORY_37\.d
*186 CIRCUIT_0\.tone_generator_2_2\.MEMORY_37\.s_currentState
*187 CIRCUIT_0\.tone_generator_2_2\.MEMORY_38\.s_currentState
*188 CIRCUIT_0\.tone_generator_2_2\.MEMORY_39\.d
*189 CIRCUIT_0\.tone_generator_2_2\.MEMORY_39\.s_currentState
*190 CIRCUIT_0\.triangle_wave_generator_1\.GATES_10\.input2
*191 CIRCUIT_0\.triangle_wave_generator_1\.GATES_11\.input2
*192 CIRCUIT_0\.triangle_wave_generator_1\.GATES_12\.input2
*193 CIRCUIT_0\.triangle_wave_generator_1\.GATES_13\.input2
*194 CIRCUIT_0\.triangle_wave_generator_1\.GATES_14\.input2
*195 CIRCUIT_0\.triangle_wave_generator_1\.GATES_15\.input2
*196 CIRCUIT_0\.triangle_wave_generator_1\.GATES_16\.input2
*197 CIRCUIT_0\.triangle_wave_generator_1\.GATES_17\.input2
*198 CIRCUIT_0\.triangle_wave_generator_1\.GATES_27\.result
*199 CIRCUIT_0\.triangle_wave_generator_1\.GATES_6\.result
*200 CIRCUIT_0\.triangle_wave_generator_1\.GATES_7\.input2
*201 CIRCUIT_0\.triangle_wave_generator_1\.GATES_8\.input2
*202 CIRCUIT_0\.triangle_wave_generator_1\.GATES_9\.input2
*203 CIRCUIT_0\.triangle_wave_generator_1\.MEMORY_28\.clock
*204 CIRCUIT_0\.triangle_wave_generator_1\.MEMORY_28\.d
*205 CIRCUIT_0\.triangle_wave_generator_1\.MEMORY_28\.s_currentState
*206 CIRCUIT_0\.triangle_wave_generator_1\.MEMORY_29\.d
*207 CIRCUIT_0\.triangle_wave_generator_1\.MEMORY_29\.s_currentState
*208 CIRCUIT_0\.triangle_wave_generator_1\.MEMORY_30\.d
*209 CIRCUIT_0\.triangle_wave_generator_1\.MEMORY_30\.s_currentState
*210 CIRCUIT_0\.triangle_wave_generator_1\.MEMORY_31\.d
*211 CIRCUIT_0\.triangle_wave_generator_1\.MEMORY_31\.s_currentState
*212 CIRCUIT_0\.triangle_wave_generator_1\.MEMORY_32\.d
*213 CIRCUIT_0\.triangle_wave_generator_1\.MEMORY_32\.s_currentState
*214 CIRCUIT_0\.triangle_wave_generator_1\.MEMORY_33\.d
*215 CIRCUIT_0\.triangle_wave_generator_1\.MEMORY_33\.s_currentState
*216 CIRCUIT_0\.triangle_wave_generator_1\.MEMORY_34\.d
*217 CIRCUIT_0\.triangle_wave_generator_1\.MEMORY_34\.s_currentState
*218 CIRCUIT_0\.triangle_wave_generator_1\.MEMORY_35\.d
*219 CIRCUIT_0\.triangle_wave_generator_1\.MEMORY_35\.s_currentState
*220 CIRCUIT_0\.triangle_wave_generator_1\.MEMORY_36\.d
*221 CIRCUIT_0\.triangle_wave_generator_1\.MEMORY_36\.s_currentState
*222 CIRCUIT_0\.triangle_wave_generator_1\.MEMORY_37\.d
*223 CIRCUIT_0\.triangle_wave_generator_1\.MEMORY_37\.s_currentState
*224 CIRCUIT_0\.triangle_wave_generator_1\.MEMORY_38\.s_currentState
*225 CIRCUIT_0\.triangle_wave_generator_1\.MEMORY_39\.d
*226 CIRCUIT_0\.triangle_wave_generator_1\.MEMORY_39\.s_currentState
*227 CIRCUIT_0\.triangle_wave_generator_1\.MEMORY_40\.clock
*228 CIRCUIT_0\.triangle_wave_generator_1\.MEMORY_40\.d
*229 CIRCUIT_0\.triangle_wave_generator_1\.MEMORY_40\.s_currentState
*230 CIRCUIT_0\.triangle_wave_generator_1\.MEMORY_41\.clock
*231 CIRCUIT_0\.triangle_wave_generator_1\.MEMORY_41\.s_currentState
*232 CIRCUIT_0\.triangle_wave_generator_1\.MEMORY_42\.s_currentState
*233 _000_
*234 _001_
*235 _002_
*236 _003_
*237 _004_
*238 _005_
*239 _006_
*240 _007_
*241 _008_
*242 _009_
*243 _011_
*244 _013_
*245 _015_
*246 _017_
*247 _019_
*248 _021_
*249 _024_
*250 _026_
*251 _028_
*252 _030_
*253 _032_
*254 _034_
*255 _036_
*256 _038_
*257 _041_
*258 _043_
*259 _045_
*260 _047_
*261 _049_
*262 _051_
*263 _052_
*264 _053_
*265 _054_
*266 _056_
*267 _058_
*268 _060_
*269 _062_
*270 _065_
*271 _067_
*272 _069_
*273 _071_
*274 _073_
*275 _075_
*276 _077_
*277 _079_
*278 _081_
*279 _083_
*280 _086_
*281 _088_
*282 _090_
*283 _092_
*284 _094_
*285 _096_
*286 _097_
*287 _098_
*288 _099_
*289 _100_
*290 _101_
*291 _102_
*292 _104_
*293 _106_
*294 _109_
*295 _111_
*296 _113_
*297 _115_
*298 _117_
*299 _119_
*300 _120_
*301 _121_
*302 _122_
*303 _123_
*304 _124_
*305 _125_
*306 _126_
*307 _127_
*308 _128_
*309 _129_
*310 _130_
*311 _131_
*312 _132_
*313 _133_
*314 _134_
*315 _135_
*316 _136_
*317 _137_
*318 _138_
*319 _139_
*320 _140_
*321 _141_
*322 _142_
*323 _143_
*324 _144_
*325 _145_
*326 _146_
*327 _147_
*328 _148_
*329 _149_
*330 _150_
*331 _151_
*332 _152_
*333 _153_
*334 _154_
*335 _155_
*336 _156_
*337 _157_
*338 _158_
*339 _159_
*340 _160_
*341 _161_
*342 _162_
*343 _163_
*344 _164_
*345 _165_
*346 _166_
*347 _167_
*348 _168_
*349 _169_
*350 _170_
*351 _171_
*352 _172_
*353 _173_
*354 _174_
*355 _175_
*356 _176_
*357 _177_
*358 _178_
*359 _179_
*360 _180_
*361 _181_
*362 _182_
*363 _183_
*364 _184_
*365 _185_
*366 _186_
*367 _187_
*368 _188_
*369 _189_
*370 _190_
*371 _191_
*372 _192_
*373 _193_
*374 _194_
*375 _195_
*376 _196_
*377 _197_
*378 _198_
*379 _199_
*380 _200_
*381 _201_
*382 _202_
*383 _203_
*384 _204_
*385 _205_
*386 _206_
*387 _207_
*388 _208_
*389 _209_
*390 _210_
*391 _211_
*392 _212_
*393 _213_
*394 _214_
*395 _215_
*396 _216_
*397 _217_
*398 _218_
*399 _219_
*400 _220_
*401 _221_
*402 _222_
*403 _223_
*404 _224_
*405 _225_
*406 _226_
*407 _227_
*408 _228_
*409 _229_
*410 _230_
*411 _231_
*412 _232_
*413 _233_
*414 _234_
*415 _235_
*416 _236_
*417 _237_
*418 _238_
*419 _239_
*420 _240_
*421 _241_
*422 _242_
*423 _243_
*424 _244_
*425 _245_
*426 _246_
*427 _247_
*428 _248_
*429 _249_
*430 _250_
*431 _251_
*432 _252_
*433 _253_
*434 _254_
*435 _255_
*436 _256_
*437 _257_
*438 _258_
*439 _259_
*440 _260_
*441 _261_
*442 _262_
*443 _263_
*444 _264_
*445 _265_
*446 _266_
*447 _267_
*448 _268_
*449 _269_
*450 _270_
*451 _271_
*452 _272_
*453 _273_
*454 _274_
*455 _275_
*456 _276_
*457 _277_
*458 _278_
*459 _279_
*460 _280_
*461 _281_
*462 _282_
*463 _283_
*464 _284_
*465 _285_
*466 _286_
*467 _287_
*468 _288_
*469 _289_
*470 _290_
*471 _291_
*472 _292_
*473 _293_
*474 _294_
*475 _295_
*476 _296_
*477 _297_
*478 _298_
*479 _299_
*480 _300_
*481 _301_
*482 _302_
*483 _303_
*484 _304_
*485 _305_
*486 _306_
*487 _307_
*488 _308_
*489 _309_
*490 _310_
*491 _311_
*492 _312_
*493 _313_
*494 _314_
*495 _315_
*496 _316_
*497 _317_
*498 _318_
*499 _319_
*500 _320_
*501 _321_
*502 _322_
*503 _323_
*504 _324_
*505 _325_
*506 _326_
*507 _327_
*508 _328_
*509 _329_
*510 _330_
*511 _331_
*512 _332_
*513 _333_
*514 _334_
*515 _335_
*516 _336_
*517 _337_
*518 _338_
*519 _339_
*520 _340_
*521 _341_
*522 _342_
*523 _343_
*524 _344_
*525 _345_
*526 _346_
*527 _347_
*528 _348_
*529 _349_
*530 _350_
*531 _351_
*532 _352_
*533 clknet_0_CIRCUIT_0\.tone_generator_1\.tone_generator_2_1\.GATES_6\.result
*534 clknet_0_CIRCUIT_0\.tone_generator_2_1\.GATES_6\.result
*535 clknet_0_CIRCUIT_0\.tone_generator_2_2\.GATES_6\.result
*536 clknet_0_CIRCUIT_0\.triangle_wave_generator_1\.GATES_6\.result
*537 clknet_0__001_
*538 clknet_0__172_
*539 clknet_0__203_
*540 clknet_0__224_
*541 clknet_0__247_
*542 clknet_0__266_
*543 clknet_0__293_
*544 clknet_0_io_in[0]
*545 clknet_1_0__leaf_CIRCUIT_0\.tone_generator_1\.tone_generator_2_1\.GATES_6\.result
*546 clknet_1_0__leaf_CIRCUIT_0\.tone_generator_2_1\.GATES_6\.result
*547 clknet_1_0__leaf_CIRCUIT_0\.tone_generator_2_2\.GATES_6\.result
*548 clknet_1_0__leaf_CIRCUIT_0\.triangle_wave_generator_1\.GATES_6\.result
*549 clknet_1_0__leaf__001_
*550 clknet_1_0__leaf__172_
*551 clknet_1_0__leaf__203_
*552 clknet_1_0__leaf__224_
*553 clknet_1_0__leaf__247_
*554 clknet_1_0__leaf__266_
*555 clknet_1_0__leaf__293_
*556 clknet_1_1__leaf_CIRCUIT_0\.tone_generator_1\.tone_generator_2_1\.GATES_6\.result
*557 clknet_1_1__leaf_CIRCUIT_0\.tone_generator_2_1\.GATES_6\.result
*558 clknet_1_1__leaf_CIRCUIT_0\.tone_generator_2_2\.GATES_6\.result
*559 clknet_1_1__leaf_CIRCUIT_0\.triangle_wave_generator_1\.GATES_6\.result
*560 clknet_1_1__leaf__001_
*561 clknet_1_1__leaf__172_
*562 clknet_1_1__leaf__203_
*563 clknet_1_1__leaf__224_
*564 clknet_1_1__leaf__247_
*565 clknet_1_1__leaf__266_
*566 clknet_1_1__leaf__293_
*567 clknet_3_0__leaf_io_in[0]
*568 clknet_3_1__leaf_io_in[0]
*569 clknet_3_2__leaf_io_in[0]
*570 clknet_3_3__leaf_io_in[0]
*571 clknet_3_4__leaf_io_in[0]
*572 clknet_3_5__leaf_io_in[0]
*573 clknet_3_6__leaf_io_in[0]
*574 clknet_3_7__leaf_io_in[0]
*575 net1
*576 net10
*577 net11
*578 net12
*579 net13
*580 net14
*581 net15
*582 net16
*583 net17
*584 net18
*585 net19
*586 net2
*587 net20
*588 net21
*589 net22
*590 net23
*591 net24
*592 net25
*593 net26
*594 net27
*595 net28
*596 net29
*597 net3
*598 net30
*599 net31
*600 net32
*601 net33
*602 net34
*603 net35
*604 net36
*605 net37
*606 net38
*607 net39
*608 net4
*609 net40
*610 net41
*611 net42
*612 net43
*613 net44
*614 net45
*615 net46
*616 net47
*617 net48
*618 net49
*619 net5
*620 net50
*621 net51
*622 net52
*623 net53
*624 net54
*625 net55
*626 net56
*627 net57
*628 net58
*629 net59
*630 net6
*631 net60
*632 net61
*633 net62
*634 net7
*635 net8
*636 net9
*637 shifter\[0\]
*638 shifter\[1\]
*639 shifter\[2\]
*640 shifter\[3\]
*641 shifter\[4\]
*642 ANTENNA_1
*643 ANTENNA_10
*644 ANTENNA_11
*645 ANTENNA_12
*646 ANTENNA_13
*647 ANTENNA_14
*648 ANTENNA_15
*649 ANTENNA_16
*650 ANTENNA_17
*651 ANTENNA_18
*652 ANTENNA_19
*653 ANTENNA_2
*654 ANTENNA_20
*655 ANTENNA_21
*656 ANTENNA_22
*657 ANTENNA_23
*658 ANTENNA_24
*659 ANTENNA_25
*660 ANTENNA_26
*661 ANTENNA_27
*662 ANTENNA_28
*663 ANTENNA_29
*664 ANTENNA_3
*665 ANTENNA_30
*666 ANTENNA_31
*667 ANTENNA_32
*668 ANTENNA_33
*669 ANTENNA_34
*670 ANTENNA_35
*671 ANTENNA_36
*672 ANTENNA_37
*673 ANTENNA_4
*674 ANTENNA_5
*675 ANTENNA_6
*676 ANTENNA_7
*677 ANTENNA_8
*678 ANTENNA_9
*679 FILLER_0_108
*680 FILLER_0_113
*681 FILLER_0_135
*682 FILLER_0_139
*683 FILLER_0_141
*684 FILLER_0_159
*685 FILLER_0_166
*686 FILLER_0_169
*687 FILLER_0_187
*688 FILLER_0_194
*689 FILLER_0_197
*690 FILLER_0_202
*691 FILLER_0_214
*692 FILLER_0_222
*693 FILLER_0_225
*694 FILLER_0_237
*695 FILLER_0_249
*696 FILLER_0_253
*697 FILLER_0_26
*698 FILLER_0_265
*699 FILLER_0_277
*700 FILLER_0_281
*701 FILLER_0_29
*702 FILLER_0_293
*703 FILLER_0_3
*704 FILLER_0_34
*705 FILLER_0_54
*706 FILLER_0_57
*707 FILLER_0_63
*708 FILLER_0_80
*709 FILLER_0_85
*710 FILLER_0_9
*711 FILLER_0_91
*712 FILLER_10_110
*713 FILLER_10_135
*714 FILLER_10_139
*715 FILLER_10_141
*716 FILLER_10_150
*717 FILLER_10_158
*718 FILLER_10_180
*719 FILLER_10_193
*720 FILLER_10_197
*721 FILLER_10_205
*722 FILLER_10_214
*723 FILLER_10_22
*724 FILLER_10_226
*725 FILLER_10_233
*726 FILLER_10_242
*727 FILLER_10_250
*728 FILLER_10_253
*729 FILLER_10_265
*730 FILLER_10_277
*731 FILLER_10_289
*732 FILLER_10_29
*733 FILLER_10_297
*734 FILLER_10_3
*735 FILLER_10_37
*736 FILLER_10_65
*737 FILLER_10_72
*738 FILLER_10_78
*739 FILLER_10_82
*740 FILLER_10_85
*741 FILLER_10_89
*742 FILLER_11_110
*743 FILLER_11_113
*744 FILLER_11_12
*745 FILLER_11_130
*746 FILLER_11_155
*747 FILLER_11_162
*748 FILLER_11_169
*749 FILLER_11_191
*750 FILLER_11_203
*751 FILLER_11_212
*752 FILLER_11_225
*753 FILLER_11_237
*754 FILLER_11_249
*755 FILLER_11_261
*756 FILLER_11_273
*757 FILLER_11_279
*758 FILLER_11_281
*759 FILLER_11_293
*760 FILLER_11_3
*761 FILLER_11_36
*762 FILLER_11_42
*763 FILLER_11_47
*764 FILLER_11_54
*765 FILLER_11_57
*766 FILLER_11_7
*767 FILLER_11_83
*768 FILLER_11_87
*769 FILLER_12_112
*770 FILLER_12_137
*771 FILLER_12_141
*772 FILLER_12_151
*773 FILLER_12_160
*774 FILLER_12_184
*775 FILLER_12_191
*776 FILLER_12_195
*777 FILLER_12_197
*778 FILLER_12_206
*779 FILLER_12_218
*780 FILLER_12_230
*781 FILLER_12_242
*782 FILLER_12_25
*783 FILLER_12_250
*784 FILLER_12_253
*785 FILLER_12_265
*786 FILLER_12_277
*787 FILLER_12_289
*788 FILLER_12_29
*789 FILLER_12_297
*790 FILLER_12_3
*791 FILLER_12_34
*792 FILLER_12_58
*793 FILLER_12_82
*794 FILLER_12_85
*795 FILLER_12_91
*796 FILLER_13_110
*797 FILLER_13_113
*798 FILLER_13_135
*799 FILLER_13_160
*800 FILLER_13_169
*801 FILLER_13_192
*802 FILLER_13_204
*803 FILLER_13_216
*804 FILLER_13_225
*805 FILLER_13_237
*806 FILLER_13_241
*807 FILLER_13_250
*808 FILLER_13_262
*809 FILLER_13_274
*810 FILLER_13_28
*811 FILLER_13_281
*812 FILLER_13_293
*813 FILLER_13_3
*814 FILLER_13_36
*815 FILLER_13_54
*816 FILLER_13_57
*817 FILLER_13_61
*818 FILLER_13_65
*819 FILLER_13_85
*820 FILLER_14_103
*821 FILLER_14_107
*822 FILLER_14_130
*823 FILLER_14_134
*824 FILLER_14_138
*825 FILLER_14_141
*826 FILLER_14_150
*827 FILLER_14_175
*828 FILLER_14_186
*829 FILLER_14_193
*830 FILLER_14_197
*831 FILLER_14_214
*832 FILLER_14_226
*833 FILLER_14_238
*834 FILLER_14_250
*835 FILLER_14_253
*836 FILLER_14_26
*837 FILLER_14_265
*838 FILLER_14_277
*839 FILLER_14_289
*840 FILLER_14_29
*841 FILLER_14_297
*842 FILLER_14_3
*843 FILLER_14_36
*844 FILLER_14_44
*845 FILLER_14_62
*846 FILLER_14_8
*847 FILLER_14_82
*848 FILLER_14_85
*849 FILLER_15_10
*850 FILLER_15_103
*851 FILLER_15_110
*852 FILLER_15_113
*853 FILLER_15_123
*854 FILLER_15_129
*855 FILLER_15_150
*856 FILLER_15_163
*857 FILLER_15_167
*858 FILLER_15_169
*859 FILLER_15_191
*860 FILLER_15_204
*861 FILLER_15_216
*862 FILLER_15_225
*863 FILLER_15_237
*864 FILLER_15_249
*865 FILLER_15_261
*866 FILLER_15_273
*867 FILLER_15_279
*868 FILLER_15_281
*869 FILLER_15_293
*870 FILLER_15_3
*871 FILLER_15_34
*872 FILLER_15_54
*873 FILLER_15_57
*874 FILLER_15_63
*875 FILLER_15_83
*876 FILLER_16_110
*877 FILLER_16_116
*878 FILLER_16_138
*879 FILLER_16_141
*880 FILLER_16_156
*881 FILLER_16_160
*882 FILLER_16_182
*883 FILLER_16_189
*884 FILLER_16_195
*885 FILLER_16_197
*886 FILLER_16_206
*887 FILLER_16_213
*888 FILLER_16_225
*889 FILLER_16_237
*890 FILLER_16_249
*891 FILLER_16_253
*892 FILLER_16_26
*893 FILLER_16_265
*894 FILLER_16_277
*895 FILLER_16_289
*896 FILLER_16_29
*897 FILLER_16_297
*898 FILLER_16_3
*899 FILLER_16_49
*900 FILLER_16_69
*901 FILLER_16_76
*902 FILLER_16_85
*903 FILLER_16_90
*904 FILLER_17_10
*905 FILLER_17_110
*906 FILLER_17_113
*907 FILLER_17_130
*908 FILLER_17_136
*909 FILLER_17_158
*910 FILLER_17_165
*911 FILLER_17_169
*912 FILLER_17_191
*913 FILLER_17_215
*914 FILLER_17_223
*915 FILLER_17_225
*916 FILLER_17_230
*917 FILLER_17_242
*918 FILLER_17_247
*919 FILLER_17_259
*920 FILLER_17_271
*921 FILLER_17_279
*922 FILLER_17_281
*923 FILLER_17_293
*924 FILLER_17_3
*925 FILLER_17_37
*926 FILLER_17_46
*927 FILLER_17_50
*928 FILLER_17_54
*929 FILLER_17_57
*930 FILLER_17_77
*931 FILLER_17_84
*932 FILLER_18_114
*933 FILLER_18_138
*934 FILLER_18_141
*935 FILLER_18_152
*936 FILLER_18_179
*937 FILLER_18_183
*938 FILLER_18_193
*939 FILLER_18_197
*940 FILLER_18_202
*941 FILLER_18_209
*942 FILLER_18_216
*943 FILLER_18_22
*944 FILLER_18_228
*945 FILLER_18_240
*946 FILLER_18_253
*947 FILLER_18_265
*948 FILLER_18_277
*949 FILLER_18_289
*950 FILLER_18_29
*951 FILLER_18_297
*952 FILLER_18_3
*953 FILLER_18_35
*954 FILLER_18_55
*955 FILLER_18_75
*956 FILLER_18_82
*957 FILLER_18_85
*958 FILLER_18_90
*959 FILLER_19_106
*960 FILLER_19_110
*961 FILLER_19_113
*962 FILLER_19_136
*963 FILLER_19_16
*964 FILLER_19_160
*965 FILLER_19_169
*966 FILLER_19_191
*967 FILLER_19_202
*968 FILLER_19_214
*969 FILLER_19_222
*970 FILLER_19_225
*971 FILLER_19_240
*972 FILLER_19_252
*973 FILLER_19_264
*974 FILLER_19_276
*975 FILLER_19_281
*976 FILLER_19_293
*977 FILLER_19_3
*978 FILLER_19_40
*979 FILLER_19_49
*980 FILLER_19_55
*981 FILLER_19_57
*982 FILLER_19_75
*983 FILLER_19_81
*984 FILLER_19_9
*985 FILLER_19_98
*986 FILLER_1_103
*987 FILLER_1_110
*988 FILLER_1_113
*989 FILLER_1_13
*990 FILLER_1_131
*991 FILLER_1_135
*992 FILLER_1_152
*993 FILLER_1_159
*994 FILLER_1_166
*995 FILLER_1_169
*996 FILLER_1_187
*997 FILLER_1_207
*998 FILLER_1_214
*999 FILLER_1_221
*1000 FILLER_1_225
*1001 FILLER_1_232
*1002 FILLER_1_244
*1003 FILLER_1_256
*1004 FILLER_1_268
*1005 FILLER_1_281
*1006 FILLER_1_293
*1007 FILLER_1_3
*1008 FILLER_1_36
*1009 FILLER_1_43
*1010 FILLER_1_52
*1011 FILLER_1_57
*1012 FILLER_1_62
*1013 FILLER_1_66
*1014 FILLER_1_83
*1015 FILLER_1_9
*1016 FILLER_20_112
*1017 FILLER_20_138
*1018 FILLER_20_141
*1019 FILLER_20_148
*1020 FILLER_20_154
*1021 FILLER_20_178
*1022 FILLER_20_185
*1023 FILLER_20_192
*1024 FILLER_20_197
*1025 FILLER_20_209
*1026 FILLER_20_221
*1027 FILLER_20_228
*1028 FILLER_20_240
*1029 FILLER_20_253
*1030 FILLER_20_26
*1031 FILLER_20_265
*1032 FILLER_20_277
*1033 FILLER_20_289
*1034 FILLER_20_29
*1035 FILLER_20_297
*1036 FILLER_20_3
*1037 FILLER_20_51
*1038 FILLER_20_55
*1039 FILLER_20_59
*1040 FILLER_20_66
*1041 FILLER_20_73
*1042 FILLER_20_82
*1043 FILLER_20_85
*1044 FILLER_21_110
*1045 FILLER_21_113
*1046 FILLER_21_119
*1047 FILLER_21_133
*1048 FILLER_21_15
*1049 FILLER_21_158
*1050 FILLER_21_165
*1051 FILLER_21_169
*1052 FILLER_21_173
*1053 FILLER_21_195
*1054 FILLER_21_202
*1055 FILLER_21_214
*1056 FILLER_21_222
*1057 FILLER_21_225
*1058 FILLER_21_230
*1059 FILLER_21_242
*1060 FILLER_21_254
*1061 FILLER_21_266
*1062 FILLER_21_278
*1063 FILLER_21_281
*1064 FILLER_21_293
*1065 FILLER_21_3
*1066 FILLER_21_42
*1067 FILLER_21_50
*1068 FILLER_21_54
*1069 FILLER_21_57
*1070 FILLER_21_64
*1071 FILLER_21_71
*1072 FILLER_21_78
*1073 FILLER_21_8
*1074 FILLER_21_85
*1075 FILLER_22_112
*1076 FILLER_22_116
*1077 FILLER_22_138
*1078 FILLER_22_141
*1079 FILLER_22_167
*1080 FILLER_22_194
*1081 FILLER_22_197
*1082 FILLER_22_207
*1083 FILLER_22_219
*1084 FILLER_22_231
*1085 FILLER_22_243
*1086 FILLER_22_251
*1087 FILLER_22_253
*1088 FILLER_22_26
*1089 FILLER_22_265
*1090 FILLER_22_277
*1091 FILLER_22_289
*1092 FILLER_22_29
*1093 FILLER_22_297
*1094 FILLER_22_3
*1095 FILLER_22_36
*1096 FILLER_22_45
*1097 FILLER_22_53
*1098 FILLER_22_58
*1099 FILLER_22_82
*1100 FILLER_22_85
*1101 FILLER_23_11
*1102 FILLER_23_110
*1103 FILLER_23_113
*1104 FILLER_23_139
*1105 FILLER_23_164
*1106 FILLER_23_169
*1107 FILLER_23_17
*1108 FILLER_23_194
*1109 FILLER_23_198
*1110 FILLER_23_208
*1111 FILLER_23_220
*1112 FILLER_23_225
*1113 FILLER_23_236
*1114 FILLER_23_248
*1115 FILLER_23_260
*1116 FILLER_23_272
*1117 FILLER_23_281
*1118 FILLER_23_293
*1119 FILLER_23_3
*1120 FILLER_23_39
*1121 FILLER_23_43
*1122 FILLER_23_47
*1123 FILLER_23_54
*1124 FILLER_23_57
*1125 FILLER_23_63
*1126 FILLER_23_67
*1127 FILLER_23_79
*1128 FILLER_23_86
*1129 FILLER_24_122
*1130 FILLER_24_131
*1131 FILLER_24_138
*1132 FILLER_24_141
*1133 FILLER_24_164
*1134 FILLER_24_192
*1135 FILLER_24_197
*1136 FILLER_24_202
*1137 FILLER_24_21
*1138 FILLER_24_214
*1139 FILLER_24_226
*1140 FILLER_24_238
*1141 FILLER_24_250
*1142 FILLER_24_253
*1143 FILLER_24_265
*1144 FILLER_24_27
*1145 FILLER_24_277
*1146 FILLER_24_289
*1147 FILLER_24_297
*1148 FILLER_24_3
*1149 FILLER_24_50
*1150 FILLER_24_54
*1151 FILLER_24_62
*1152 FILLER_24_70
*1153 FILLER_24_74
*1154 FILLER_24_82
*1155 FILLER_24_85
*1156 FILLER_24_95
*1157 FILLER_25_106
*1158 FILLER_25_113
*1159 FILLER_25_135
*1160 FILLER_25_139
*1161 FILLER_25_143
*1162 FILLER_25_15
*1163 FILLER_25_165
*1164 FILLER_25_169
*1165 FILLER_25_192
*1166 FILLER_25_204
*1167 FILLER_25_214
*1168 FILLER_25_222
*1169 FILLER_25_225
*1170 FILLER_25_237
*1171 FILLER_25_249
*1172 FILLER_25_255
*1173 FILLER_25_259
*1174 FILLER_25_271
*1175 FILLER_25_279
*1176 FILLER_25_281
*1177 FILLER_25_293
*1178 FILLER_25_3
*1179 FILLER_25_40
*1180 FILLER_25_49
*1181 FILLER_25_55
*1182 FILLER_25_57
*1183 FILLER_25_63
*1184 FILLER_25_67
*1185 FILLER_25_74
*1186 FILLER_25_81
*1187 FILLER_25_9
*1188 FILLER_25_90
*1189 FILLER_25_99
*1190 FILLER_26_11
*1191 FILLER_26_116
*1192 FILLER_26_125
*1193 FILLER_26_138
*1194 FILLER_26_141
*1195 FILLER_26_165
*1196 FILLER_26_19
*1197 FILLER_26_194
*1198 FILLER_26_197
*1199 FILLER_26_206
*1200 FILLER_26_218
*1201 FILLER_26_230
*1202 FILLER_26_242
*1203 FILLER_26_250
*1204 FILLER_26_253
*1205 FILLER_26_26
*1206 FILLER_26_265
*1207 FILLER_26_277
*1208 FILLER_26_289
*1209 FILLER_26_29
*1210 FILLER_26_297
*1211 FILLER_26_3
*1212 FILLER_26_36
*1213 FILLER_26_42
*1214 FILLER_26_46
*1215 FILLER_26_60
*1216 FILLER_26_69
*1217 FILLER_26_77
*1218 FILLER_26_82
*1219 FILLER_26_85
*1220 FILLER_26_92
*1221 FILLER_27_101
*1222 FILLER_27_108
*1223 FILLER_27_11
*1224 FILLER_27_113
*1225 FILLER_27_135
*1226 FILLER_27_143
*1227 FILLER_27_147
*1228 FILLER_27_154
*1229 FILLER_27_161
*1230 FILLER_27_167
*1231 FILLER_27_169
*1232 FILLER_27_177
*1233 FILLER_27_184
*1234 FILLER_27_191
*1235 FILLER_27_198
*1236 FILLER_27_210
*1237 FILLER_27_222
*1238 FILLER_27_225
*1239 FILLER_27_237
*1240 FILLER_27_248
*1241 FILLER_27_260
*1242 FILLER_27_272
*1243 FILLER_27_281
*1244 FILLER_27_293
*1245 FILLER_27_3
*1246 FILLER_27_38
*1247 FILLER_27_47
*1248 FILLER_27_54
*1249 FILLER_27_57
*1250 FILLER_27_63
*1251 FILLER_27_72
*1252 FILLER_27_84
*1253 FILLER_27_90
*1254 FILLER_27_94
*1255 FILLER_28_100
*1256 FILLER_28_11
*1257 FILLER_28_124
*1258 FILLER_28_137
*1259 FILLER_28_141
*1260 FILLER_28_149
*1261 FILLER_28_15
*1262 FILLER_28_154
*1263 FILLER_28_178
*1264 FILLER_28_186
*1265 FILLER_28_19
*1266 FILLER_28_194
*1267 FILLER_28_197
*1268 FILLER_28_202
*1269 FILLER_28_214
*1270 FILLER_28_226
*1271 FILLER_28_238
*1272 FILLER_28_246
*1273 FILLER_28_250
*1274 FILLER_28_253
*1275 FILLER_28_26
*1276 FILLER_28_265