*SPEF "ieee 1481-1999"
*DESIGN "thunderbird_taillight_ctrl"
*DATE "11:11:11 Fri 11 11, 1111"
*VENDOR "OpenRCX"
*PROGRAM "Parallel Extraction"
*VERSION "1.0"
*DESIGN_FLOW "NAME_SCOPE LOCAL" "PIN_CAP NONE"
*DIVIDER /
*DELIMITER :
*BUS_DELIMITER []
*T_UNIT 1 NS
*C_UNIT 1 PF
*R_UNIT 1 OHM
*L_UNIT 1 HENRY

*NAME_MAP
*1 io_in[0]
*2 io_in[1]
*3 io_in[2]
*4 io_in[3]
*5 io_in[4]
*6 io_in[5]
*7 io_in[6]
*8 io_in[7]
*9 io_out[0]
*10 io_out[1]
*11 io_out[2]
*12 io_out[3]
*13 io_out[4]
*14 io_out[5]
*15 net5
*16 net6
*19 _000_
*20 _001_
*21 _002_
*22 _003_
*23 _004_
*24 _005_
*25 _006_
*26 _007_
*27 _008_
*28 _009_
*29 _010_
*30 _011_
*31 _012_
*32 _013_
*33 _014_
*34 _015_
*35 _016_
*36 _017_
*37 _018_
*38 _019_
*39 _020_
*40 _021_
*41 _022_
*42 _023_
*43 _024_
*44 _025_
*45 _026_
*46 _027_
*47 _028_
*48 _029_
*49 _030_
*50 _031_
*51 _032_
*52 _033_
*53 _034_
*54 _035_
*55 _036_
*56 _037_
*57 _038_
*58 _039_
*59 _040_
*60 _041_
*61 _042_
*62 _043_
*63 _044_
*64 _045_
*65 _046_
*66 _047_
*67 _048_
*68 _049_
*69 _050_
*70 _051_
*71 _052_
*72 _053_
*73 _054_
*74 _055_
*75 _056_
*76 _057_
*77 _058_
*78 _059_
*79 _060_
*80 _061_
*81 _062_
*82 _063_
*83 _064_
*84 _065_
*85 _066_
*86 _067_
*87 _068_
*88 _069_
*89 clknet_0_io_in[0]
*90 clknet_1_0__leaf_io_in[0]
*91 clknet_1_1__leaf_io_in[0]
*92 divider_i\.cnt\[0\]
*93 divider_i\.cnt\[1\]
*94 divider_i\.cnt\[2\]
*95 divider_i\.cnt\[3\]
*96 divider_i\.cnt\[4\]
*97 divider_i\.cnt\[5\]
*98 divider_i\.cnt\[6\]
*99 divider_i\.cnt\[7\]
*100 divider_i\.cnt\[8\]
*101 divider_i\.cnt\[9\]
*102 net1
*103 net2
*104 net3
*105 net4
*106 FILLER_0_109
*107 FILLER_0_113
*108 FILLER_0_125
*109 FILLER_0_137
*110 FILLER_0_141
*111 FILLER_0_153
*112 FILLER_0_165
*113 FILLER_0_169
*114 FILLER_0_181
*115 FILLER_0_193
*116 FILLER_0_197
*117 FILLER_0_209
*118 FILLER_0_221
*119 FILLER_0_225
*120 FILLER_0_237
*121 FILLER_0_249
*122 FILLER_0_253
*123 FILLER_0_26
*124 FILLER_0_265
*125 FILLER_0_277
*126 FILLER_0_281
*127 FILLER_0_29
*128 FILLER_0_293
*129 FILLER_0_3
*130 FILLER_0_47
*131 FILLER_0_55
*132 FILLER_0_57
*133 FILLER_0_75
*134 FILLER_0_83
*135 FILLER_0_85
*136 FILLER_0_9
*137 FILLER_0_97
*138 FILLER_10_109
*139 FILLER_10_121
*140 FILLER_10_133
*141 FILLER_10_139
*142 FILLER_10_141
*143 FILLER_10_15
*144 FILLER_10_153
*145 FILLER_10_165
*146 FILLER_10_177
*147 FILLER_10_189
*148 FILLER_10_195
*149 FILLER_10_197
*150 FILLER_10_209
*151 FILLER_10_221
*152 FILLER_10_233
*153 FILLER_10_245
*154 FILLER_10_251
*155 FILLER_10_253
*156 FILLER_10_265
*157 FILLER_10_27
*158 FILLER_10_277
*159 FILLER_10_289
*160 FILLER_10_29
*161 FILLER_10_297
*162 FILLER_10_3
*163 FILLER_10_41
*164 FILLER_10_53
*165 FILLER_10_65
*166 FILLER_10_77
*167 FILLER_10_83
*168 FILLER_10_85
*169 FILLER_10_97
*170 FILLER_11_105
*171 FILLER_11_111
*172 FILLER_11_113
*173 FILLER_11_125
*174 FILLER_11_137
*175 FILLER_11_149
*176 FILLER_11_15
*177 FILLER_11_161
*178 FILLER_11_167
*179 FILLER_11_169
*180 FILLER_11_181
*181 FILLER_11_193
*182 FILLER_11_205
*183 FILLER_11_217
*184 FILLER_11_223
*185 FILLER_11_225
*186 FILLER_11_237
*187 FILLER_11_249
*188 FILLER_11_261
*189 FILLER_11_27
*190 FILLER_11_273
*191 FILLER_11_279
*192 FILLER_11_281
*193 FILLER_11_293
*194 FILLER_11_3
*195 FILLER_11_39
*196 FILLER_11_51
*197 FILLER_11_55
*198 FILLER_11_57
*199 FILLER_11_69
*200 FILLER_11_81
*201 FILLER_11_93
*202 FILLER_12_109
*203 FILLER_12_121
*204 FILLER_12_133
*205 FILLER_12_139
*206 FILLER_12_141
*207 FILLER_12_153
*208 FILLER_12_165
*209 FILLER_12_177
*210 FILLER_12_189
*211 FILLER_12_195
*212 FILLER_12_197
*213 FILLER_12_20
*214 FILLER_12_209
*215 FILLER_12_221
*216 FILLER_12_233
*217 FILLER_12_245
*218 FILLER_12_251
*219 FILLER_12_253
*220 FILLER_12_265
*221 FILLER_12_277
*222 FILLER_12_289
*223 FILLER_12_29
*224 FILLER_12_297
*225 FILLER_12_3
*226 FILLER_12_41
*227 FILLER_12_53
*228 FILLER_12_65
*229 FILLER_12_77
*230 FILLER_12_8
*231 FILLER_12_83
*232 FILLER_12_85
*233 FILLER_12_97
*234 FILLER_13_105
*235 FILLER_13_111
*236 FILLER_13_113
*237 FILLER_13_125
*238 FILLER_13_137
*239 FILLER_13_149
*240 FILLER_13_15
*241 FILLER_13_161
*242 FILLER_13_167
*243 FILLER_13_169
*244 FILLER_13_181
*245 FILLER_13_193
*246 FILLER_13_205
*247 FILLER_13_217
*248 FILLER_13_223
*249 FILLER_13_225
*250 FILLER_13_237
*251 FILLER_13_249
*252 FILLER_13_261
*253 FILLER_13_27
*254 FILLER_13_273
*255 FILLER_13_279
*256 FILLER_13_281
*257 FILLER_13_293
*258 FILLER_13_3
*259 FILLER_13_39
*260 FILLER_13_51
*261 FILLER_13_55
*262 FILLER_13_57
*263 FILLER_13_69
*264 FILLER_13_81
*265 FILLER_13_93
*266 FILLER_14_104
*267 FILLER_14_116
*268 FILLER_14_128
*269 FILLER_14_141
*270 FILLER_14_15
*271 FILLER_14_153
*272 FILLER_14_165
*273 FILLER_14_177
*274 FILLER_14_189
*275 FILLER_14_195
*276 FILLER_14_197
*277 FILLER_14_209
*278 FILLER_14_221
*279 FILLER_14_233
*280 FILLER_14_245
*281 FILLER_14_251
*282 FILLER_14_253
*283 FILLER_14_265
*284 FILLER_14_27
*285 FILLER_14_277
*286 FILLER_14_289
*287 FILLER_14_29
*288 FILLER_14_297
*289 FILLER_14_3
*290 FILLER_14_41
*291 FILLER_14_53
*292 FILLER_14_65
*293 FILLER_14_77
*294 FILLER_14_81
*295 FILLER_14_85
*296 FILLER_14_92
*297 FILLER_15_105
*298 FILLER_15_111
*299 FILLER_15_113
*300 FILLER_15_125
*301 FILLER_15_137
*302 FILLER_15_149
*303 FILLER_15_161
*304 FILLER_15_167
*305 FILLER_15_169
*306 FILLER_15_181
*307 FILLER_15_193
*308 FILLER_15_205
*309 FILLER_15_21
*310 FILLER_15_217
*311 FILLER_15_223
*312 FILLER_15_225
*313 FILLER_15_237
*314 FILLER_15_249
*315 FILLER_15_261
*316 FILLER_15_273
*317 FILLER_15_279
*318 FILLER_15_281
*319 FILLER_15_293
*320 FILLER_15_3
*321 FILLER_15_33
*322 FILLER_15_45
*323 FILLER_15_53
*324 FILLER_15_57
*325 FILLER_15_69
*326 FILLER_15_82
*327 FILLER_15_9
*328 FILLER_15_93
*329 FILLER_16_109
*330 FILLER_16_11
*331 FILLER_16_121
*332 FILLER_16_133
*333 FILLER_16_139
*334 FILLER_16_141
*335 FILLER_16_153
*336 FILLER_16_16
*337 FILLER_16_165
*338 FILLER_16_177
*339 FILLER_16_189
*340 FILLER_16_195
*341 FILLER_16_197
*342 FILLER_16_209
*343 FILLER_16_221
*344 FILLER_16_233
*345 FILLER_16_245
*346 FILLER_16_251
*347 FILLER_16_253
*348 FILLER_16_265
*349 FILLER_16_277
*350 FILLER_16_289
*351 FILLER_16_29
*352 FILLER_16_297
*353 FILLER_16_3
*354 FILLER_16_41
*355 FILLER_16_53
*356 FILLER_16_65
*357 FILLER_16_77
*358 FILLER_16_83
*359 FILLER_16_85
*360 FILLER_16_97
*361 FILLER_17_107
*362 FILLER_17_111
*363 FILLER_17_113
*364 FILLER_17_125
*365 FILLER_17_137
*366 FILLER_17_149
*367 FILLER_17_15
*368 FILLER_17_161
*369 FILLER_17_167
*370 FILLER_17_169
*371 FILLER_17_181
*372 FILLER_17_193
*373 FILLER_17_205
*374 FILLER_17_217
*375 FILLER_17_223
*376 FILLER_17_225
*377 FILLER_17_237
*378 FILLER_17_249
*379 FILLER_17_261
*380 FILLER_17_27
*381 FILLER_17_273
*382 FILLER_17_279
*383 FILLER_17_281
*384 FILLER_17_293
*385 FILLER_17_3
*386 FILLER_17_35
*387 FILLER_17_54
*388 FILLER_17_57
*389 FILLER_17_65
*390 FILLER_17_71
*391 FILLER_17_83
*392 FILLER_17_95
*393 FILLER_18_109
*394 FILLER_18_121
*395 FILLER_18_133
*396 FILLER_18_139
*397 FILLER_18_141
*398 FILLER_18_15
*399 FILLER_18_153
*400 FILLER_18_165
*401 FILLER_18_177
*402 FILLER_18_189
*403 FILLER_18_195
*404 FILLER_18_197
*405 FILLER_18_209
*406 FILLER_18_221
*407 FILLER_18_233
*408 FILLER_18_245
*409 FILLER_18_251
*410 FILLER_18_253
*411 FILLER_18_265
*412 FILLER_18_27
*413 FILLER_18_277
*414 FILLER_18_289
*415 FILLER_18_29
*416 FILLER_18_297
*417 FILLER_18_3
*418 FILLER_18_41
*419 FILLER_18_53
*420 FILLER_18_65
*421 FILLER_18_71
*422 FILLER_18_76
*423 FILLER_18_85
*424 FILLER_18_97
*425 FILLER_19_105
*426 FILLER_19_111
*427 FILLER_19_113
*428 FILLER_19_125
*429 FILLER_19_137
*430 FILLER_19_149
*431 FILLER_19_15
*432 FILLER_19_161
*433 FILLER_19_167
*434 FILLER_19_169
*435 FILLER_19_181
*436 FILLER_19_193
*437 FILLER_19_205
*438 FILLER_19_217
*439 FILLER_19_22
*440 FILLER_19_223
*441 FILLER_19_225
*442 FILLER_19_237
*443 FILLER_19_249
*444 FILLER_19_26
*445 FILLER_19_261
*446 FILLER_19_273
*447 FILLER_19_279
*448 FILLER_19_281
*449 FILLER_19_293
*450 FILLER_19_3
*451 FILLER_19_30
*452 FILLER_19_42
*453 FILLER_19_54
*454 FILLER_19_57
*455 FILLER_19_65
*456 FILLER_19_69
*457 FILLER_19_81
*458 FILLER_19_93
*459 FILLER_1_102
*460 FILLER_1_110
*461 FILLER_1_113
*462 FILLER_1_125
*463 FILLER_1_137
*464 FILLER_1_149
*465 FILLER_1_15
*466 FILLER_1_161
*467 FILLER_1_167
*468 FILLER_1_169
*469 FILLER_1_181
*470 FILLER_1_193
*471 FILLER_1_205
*472 FILLER_1_217
*473 FILLER_1_223
*474 FILLER_1_225
*475 FILLER_1_237
*476 FILLER_1_249
*477 FILLER_1_261
*478 FILLER_1_273
*479 FILLER_1_279
*480 FILLER_1_281
*481 FILLER_1_293
*482 FILLER_1_3
*483 FILLER_1_36
*484 FILLER_1_48
*485 FILLER_1_57
*486 FILLER_1_75
*487 FILLER_1_90
*488 FILLER_20_10
*489 FILLER_20_103
*490 FILLER_20_115
*491 FILLER_20_127
*492 FILLER_20_139
*493 FILLER_20_141
*494 FILLER_20_153
*495 FILLER_20_165
*496 FILLER_20_177
*497 FILLER_20_189
*498 FILLER_20_195
*499 FILLER_20_197
*500 FILLER_20_209
*501 FILLER_20_21
*502 FILLER_20_221
*503 FILLER_20_233
*504 FILLER_20_245
*505 FILLER_20_251
*506 FILLER_20_253
*507 FILLER_20_265
*508 FILLER_20_27
*509 FILLER_20_277
*510 FILLER_20_289
*511 FILLER_20_29
*512 FILLER_20_297
*513 FILLER_20_3
*514 FILLER_20_37
*515 FILLER_20_49
*516 FILLER_20_57
*517 FILLER_20_64
*518 FILLER_20_73
*519 FILLER_20_81
*520 FILLER_20_85
*521 FILLER_20_91
*522 FILLER_21_106
*523 FILLER_21_113
*524 FILLER_21_125
*525 FILLER_21_137
*526 FILLER_21_149
*527 FILLER_21_15
*528 FILLER_21_161
*529 FILLER_21_167
*530 FILLER_21_169
*531 FILLER_21_181
*532 FILLER_21_193
*533 FILLER_21_205
*534 FILLER_21_217
*535 FILLER_21_223
*536 FILLER_21_225
*537 FILLER_21_237
*538 FILLER_21_24
*539 FILLER_21_249
*540 FILLER_21_261
*541 FILLER_21_273
*542 FILLER_21_279
*543 FILLER_21_281
*544 FILLER_21_293
*545 FILLER_21_3
*546 FILLER_21_36
*547 FILLER_21_48
*548 FILLER_21_57
*549 FILLER_21_63
*550 FILLER_21_72
*551 FILLER_21_85
*552 FILLER_21_94
*553 FILLER_22_10
*554 FILLER_22_109
*555 FILLER_22_121
*556 FILLER_22_133
*557 FILLER_22_139
*558 FILLER_22_141
*559 FILLER_22_153
*560 FILLER_22_165
*561 FILLER_22_177
*562 FILLER_22_189
*563 FILLER_22_195
*564 FILLER_22_197
*565 FILLER_22_209
*566 FILLER_22_22
*567 FILLER_22_221
*568 FILLER_22_233
*569 FILLER_22_245
*570 FILLER_22_251
*571 FILLER_22_253
*572 FILLER_22_265
*573 FILLER_22_277
*574 FILLER_22_289
*575 FILLER_22_29
*576 FILLER_22_297
*577 FILLER_22_3
*578 FILLER_22_41
*579 FILLER_22_47
*580 FILLER_22_54
*581 FILLER_22_58
*582 FILLER_22_62
*583 FILLER_22_70
*584 FILLER_22_76
*585 FILLER_22_85
*586 FILLER_22_97
*587 FILLER_23_102
*588 FILLER_23_110
*589 FILLER_23_113
*590 FILLER_23_125
*591 FILLER_23_137
*592 FILLER_23_149
*593 FILLER_23_15
*594 FILLER_23_161
*595 FILLER_23_167
*596 FILLER_23_169
*597 FILLER_23_181
*598 FILLER_23_193
*599 FILLER_23_205
*600 FILLER_23_217
*601 FILLER_23_223
*602 FILLER_23_225
*603 FILLER_23_237
*604 FILLER_23_249
*605 FILLER_23_261
*606 FILLER_23_27
*607 FILLER_23_273
*608 FILLER_23_279
*609 FILLER_23_281
*610 FILLER_23_293
*611 FILLER_23_3
*612 FILLER_23_39
*613 FILLER_23_51
*614 FILLER_23_55
*615 FILLER_23_57
*616 FILLER_23_63
*617 FILLER_23_68
*618 FILLER_23_78
*619 FILLER_23_90
*620 FILLER_24_109
*621 FILLER_24_11
*622 FILLER_24_121
*623 FILLER_24_133
*624 FILLER_24_139
*625 FILLER_24_141
*626 FILLER_24_153
*627 FILLER_24_165
*628 FILLER_24_177
*629 FILLER_24_189
*630 FILLER_24_195
*631 FILLER_24_197
*632 FILLER_24_20
*633 FILLER_24_209
*634 FILLER_24_221
*635 FILLER_24_233
*636 FILLER_24_245
*637 FILLER_24_251
*638 FILLER_24_253
*639 FILLER_24_265
*640 FILLER_24_277
*641 FILLER_24_289
*642 FILLER_24_29
*643 FILLER_24_297
*644 FILLER_24_3
*645 FILLER_24_41
*646 FILLER_24_49
*647 FILLER_24_57
*648 FILLER_24_64
*649 FILLER_24_75
*650 FILLER_24_83
*651 FILLER_24_85
*652 FILLER_24_97
*653 FILLER_25_108
*654 FILLER_25_113
*655 FILLER_25_125
*656 FILLER_25_137
*657 FILLER_25_149
*658 FILLER_25_15
*659 FILLER_25_161
*660 FILLER_25_167
*661 FILLER_25_169
*662 FILLER_25_181
*663 FILLER_25_193
*664 FILLER_25_205
*665 FILLER_25_217
*666 FILLER_25_223
*667 FILLER_25_225
*668 FILLER_25_237
*669 FILLER_25_249
*670 FILLER_25_261
*671 FILLER_25_27
*672 FILLER_25_273
*673 FILLER_25_279
*674 FILLER_25_281
*675 FILLER_25_293
*676 FILLER_25_3
*677 FILLER_25_39
*678 FILLER_25_51
*679 FILLER_25_55
*680 FILLER_25_57
*681 FILLER_25_72
*682 FILLER_25_84
*683 FILLER_25_96
*684 FILLER_26_109
*685 FILLER_26_121
*686 FILLER_26_133
*687 FILLER_26_139
*688 FILLER_26_14
*689 FILLER_26_141
*690 FILLER_26_153
*691 FILLER_26_165
*692 FILLER_26_177
*693 FILLER_26_189
*694 FILLER_26_195
*695 FILLER_26_197
*696 FILLER_26_209
*697 FILLER_26_221
*698 FILLER_26_233
*699 FILLER_26_245
*700 FILLER_26_251
*701 FILLER_26_253
*702 FILLER_26_26
*703 FILLER_26_265
*704 FILLER_26_277
*705 FILLER_26_289
*706 FILLER_26_29
*707 FILLER_26_297
*708 FILLER_26_3
*709 FILLER_26_41
*710 FILLER_26_45
*711 FILLER_26_54
*712 FILLER_26_62
*713 FILLER_26_70
*714 FILLER_26_82
*715 FILLER_26_85
*716 FILLER_26_97
*717 FILLER_27_100
*718 FILLER_27_113
*719 FILLER_27_125
*720 FILLER_27_137
*721 FILLER_27_14
*722 FILLER_27_149
*723 FILLER_27_161
*724 FILLER_27_167
*725 FILLER_27_169
*726 FILLER_27_181
*727 FILLER_27_193
*728 FILLER_27_205
*729 FILLER_27_217
*730 FILLER_27_223
*731 FILLER_27_225
*732 FILLER_27_237
*733 FILLER_27_249
*734 FILLER_27_261
*735 FILLER_27_273
*736 FILLER_27_279
*737 FILLER_27_28
*738 FILLER_27_281
*739 FILLER_27_293
*740 FILLER_27_3
*741 FILLER_27_40
*742 FILLER_27_52
*743 FILLER_27_57
*744 FILLER_27_69
*745 FILLER_27_76
*746 FILLER_27_88
*747 FILLER_28_109
*748 FILLER_28_121
*749 FILLER_28_133
*750 FILLER_28_139
*751 FILLER_28_141
*752 FILLER_28_15
*753 FILLER_28_153
*754 FILLER_28_165
*755 FILLER_28_177
*756 FILLER_28_189
*757 FILLER_28_195
*758 FILLER_28_197
*759 FILLER_28_209
*760 FILLER_28_221
*761 FILLER_28_233
*762 FILLER_28_245
*763 FILLER_28_251
*764 FILLER_28_253
*765 FILLER_28_265
*766 FILLER_28_27
*767 FILLER_28_277
*768 FILLER_28_289
*769 FILLER_28_29
*770 FILLER_28_297
*771 FILLER_28_3
*772 FILLER_28_37
*773 FILLER_28_45
*774 FILLER_28_57
*775 FILLER_28_67
*776 FILLER_28_78
*777 FILLER_28_85
*778 FILLER_28_97
*779 FILLER_29_105
*780 FILLER_29_111
*781 FILLER_29_113
*782 FILLER_29_125
*783 FILLER_29_137
*784 FILLER_29_149
*785 FILLER_29_15
*786 FILLER_29_161
*787 FILLER_29_167
*788 FILLER_29_169
*789 FILLER_29_181
*790 FILLER_29_193
*791 FILLER_29_205
*792 FILLER_29_217
*793 FILLER_29_223
*794 FILLER_29_225
*795 FILLER_29_237
*796 FILLER_29_249
*797 FILLER_29_261
*798 FILLER_29_27
*799 FILLER_29_273
*800 FILLER_29_279
*801 FILLER_29_281
*802 FILLER_29_293
*803 FILLER_29_3
*804 FILLER_29_39
*805 FILLER_29_51
*806 FILLER_29_55
*807 FILLER_29_57
*808 FILLER_29_69
*809 FILLER_29_81
*810 FILLER_29_93
*811 FILLER_2_109
*812 FILLER_2_121
*813 FILLER_2_133
*814 FILLER_2_139
*815 FILLER_2_141
*816 FILLER_2_153
*817 FILLER_2_165
*818 FILLER_2_177
*819 FILLER_2_189
*820 FILLER_2_195
*821 FILLER_2_197
*822 FILLER_2_209
*823 FILLER_2_221
*824 FILLER_2_233
*825 FILLER_2_24
*826 FILLER_2_245
*827 FILLER_2_251
*828 FILLER_2_253
*829 FILLER_2_265
*830 FILLER_2_277
*831 FILLER_2_289
*832 FILLER_2_29
*833 FILLER_2_297
*834 FILLER_2_3
*835 FILLER_2_47
*836 FILLER_2_67
*837 FILLER_2_74
*838 FILLER_2_82
*839 FILLER_2_85
*840 FILLER_2_97
*841 FILLER_30_109
*842 FILLER_30_121
*843 FILLER_30_133
*844 FILLER_30_139
*845 FILLER_30_14
*846 FILLER_30_141
*847 FILLER_30_153
*848 FILLER_30_165
*849 FILLER_30_177
*850 FILLER_30_189
*851 FILLER_30_195
*852 FILLER_30_197
*853 FILLER_30_209
*854 FILLER_30_221
*855 FILLER_30_233
*856 FILLER_30_245
*857 FILLER_30_251
*858 FILLER_30_253
*859 FILLER_30_26
*860 FILLER_30_265
*861 FILLER_30_277
*862 FILLER_30_289
*863 FILLER_30_29
*864 FILLER_30_297
*865 FILLER_30_3
*866 FILLER_30_50
*867 FILLER_30_62
*868 FILLER_30_74
*869 FILLER_30_82
*870 FILLER_30_85
*871 FILLER_30_97
*872 FILLER_31_100
*873 FILLER_31_113
*874 FILLER_31_125
*875 FILLER_31_137
*876 FILLER_31_14
*877 FILLER_31_149
*878 FILLER_31_161
*879 FILLER_31_167
*880 FILLER_31_169
*881 FILLER_31_18
*882 FILLER_31_181
*883 FILLER_31_193
*884 FILLER_31_205
*885 FILLER_31_217
*886 FILLER_31_223
*887 FILLER_31_225
*888 FILLER_31_237
*889 FILLER_31_24
*890 FILLER_31_249
*891 FILLER_31_261
*892 FILLER_31_273
*893 FILLER_31_279
*894 FILLER_31_281
*895 FILLER_31_293
*896 FILLER_31_3
*897 FILLER_31_36
*898 FILLER_31_48
*899 FILLER_31_57
*900 FILLER_31_76
*901 FILLER_31_88
*902 FILLER_32_109
*903 FILLER_32_121
*904 FILLER_32_133
*905 FILLER_32_139
*906 FILLER_32_141
*907 FILLER_32_15
*908 FILLER_32_153
*909 FILLER_32_165
*910 FILLER_32_177
*911 FILLER_32_189
*912 FILLER_32_195
*913 FILLER_32_197
*914 FILLER_32_209
*915 FILLER_32_221
*916 FILLER_32_233
*917 FILLER_32_245
*918 FILLER_32_251
*919 FILLER_32_253
*920 FILLER_32_265
*921 FILLER_32_27
*922 FILLER_32_277
*923 FILLER_32_289
*924 FILLER_32_29
*925 FILLER_32_297
*926 FILLER_32_3
*927 FILLER_32_36
*928 FILLER_32_55
*929 FILLER_32_67
*930 FILLER_32_79
*931 FILLER_32_83
*932 FILLER_32_85
*933 FILLER_32_97
*934 FILLER_33_105
*935 FILLER_33_111
*936 FILLER_33_113
*937 FILLER_33_125
*938 FILLER_33_137
*939 FILLER_33_149
*940 FILLER_33_161
*941 FILLER_33_167
*942 FILLER_33_169
*943 FILLER_33_181
*944 FILLER_33_193
*945 FILLER_33_20
*946 FILLER_33_205
*947 FILLER_33_217
*948 FILLER_33_223
*949 FILLER_33_225
*950 FILLER_33_237
*951 FILLER_33_249
*952 FILLER_33_261
*953 FILLER_33_273
*954 FILLER_33_279
*955 FILLER_33_281
*956 FILLER_33_293
*957 FILLER_33_3
*958 FILLER_33_34
*959 FILLER_33_44
*960 FILLER_33_51
*961 FILLER_33_55
*962 FILLER_33_57
*963 FILLER_33_69
*964 FILLER_33_8
*965 FILLER_33_81
*966 FILLER_33_93
*967 FILLER_34_109
*968 FILLER_34_121
*969 FILLER_34_133
*970 FILLER_34_139
*971 FILLER_34_141
*972 FILLER_34_15
*973 FILLER_34_153
*974 FILLER_34_165
*975 FILLER_34_177
*976 FILLER_34_189
*977 FILLER_34_195
*978 FILLER_34_197
*979 FILLER_34_209
*980 FILLER_34_221
*981 FILLER_34_233
*982 FILLER_34_245
*983 FILLER_34_251
*984 FILLER_34_253
*985 FILLER_34_265
*986 FILLER_34_27
*987 FILLER_34_277
*988 FILLER_34_289
*989 FILLER_34_29
*990 FILLER_34_297
*991 FILLER_34_3
*992 FILLER_34_34
*993 FILLER_34_46
*994 FILLER_34_58
*995 FILLER_34_70
*996 FILLER_34_82
*997 FILLER_34_85
*998 FILLER_34_97
*999 FILLER_35_11
*1000 FILLER_35_111
*1001 FILLER_35_113
*1002 FILLER_35_125
*1003 FILLER_35_137
*1004 FILLER_35_149
*1005 FILLER_35_161
*1006 FILLER_35_167
*1007 FILLER_35_169
*1008 FILLER_35_181
*1009 FILLER_35_193
*1010 FILLER_35_205
*1011 FILLER_35_217
*1012 FILLER_35_22
*1013 FILLER_35_223
*1014 FILLER_35_225
*1015 FILLER_35_237
*1016 FILLER_35_249
*1017 FILLER_35_261
*1018 FILLER_35_273
*1019 FILLER_35_279
*1020 FILLER_35_281
*1021 FILLER_35_293
*1022 FILLER_35_3
*1023 FILLER_35_34
*1024 FILLER_35_54
*1025 FILLER_35_57
*1026 FILLER_35_63
*1027 FILLER_35_75
*1028 FILLER_35_87
*1029 FILLER_35_99
*1030 FILLER_36_109
*1031 FILLER_36_121
*1032 FILLER_36_133
*1033 FILLER_36_139
*1034 FILLER_36_141
*1035 FILLER_36_15
*1036 FILLER_36_153
*1037 FILLER_36_165
*1038 FILLER_36_177
*1039 FILLER_36_189
*1040 FILLER_36_195
*1041 FILLER_36_197
*1042 FILLER_36_209
*1043 FILLER_36_221
*1044 FILLER_36_233
*1045 FILLER_36_245
*1046 FILLER_36_251
*1047 FILLER_36_253
*1048 FILLER_36_265
*1049 FILLER_36_27
*1050 FILLER_36_277
*1051 FILLER_36_289
*1052 FILLER_36_29
*1053 FILLER_36_297
*1054 FILLER_36_3
*1055 FILLER_36_40
*1056 FILLER_36_52
*1057 FILLER_36_64
*1058 FILLER_36_76
*1059 FILLER_36_85
*1060 FILLER_36_97
*1061 FILLER_37_105
*1062 FILLER_37_111
*1063 FILLER_37_113
*1064 FILLER_37_125
*1065 FILLER_37_137
*1066 FILLER_37_149
*1067 FILLER_37_15
*1068 FILLER_37_161
*1069 FILLER_37_167
*1070 FILLER_37_169
*1071 FILLER_37_181
*1072 FILLER_37_193
*1073 FILLER_37_205
*1074 FILLER_37_217
*1075 FILLER_37_223
*1076 FILLER_37_225
*1077 FILLER_37_237
*1078 FILLER_37_249
*1079 FILLER_37_261
*1080 FILLER_37_27
*1081 FILLER_37_273
*1082 FILLER_37_279
*1083 FILLER_37_281
*1084 FILLER_37_293
*1085 FILLER_37_3
*1086 FILLER_37_41
*1087 FILLER_37_53
*1088 FILLER_37_57
*1089 FILLER_37_69
*1090 FILLER_37_81
*1091 FILLER_37_93
*1092 FILLER_38_109
*1093 FILLER_38_121
*1094 FILLER_38_133
*1095 FILLER_38_139
*1096 FILLER_38_141
*1097 FILLER_38_15
*1098 FILLER_38_153
*1099 FILLER_38_165
*1100 FILLER_38_177
*1101 FILLER_38_189
*1102 FILLER_38_195
*1103 FILLER_38_197
*1104 FILLER_38_209
*1105 FILLER_38_221
*1106 FILLER_38_233
*1107 FILLER_38_245
*1108 FILLER_38_251
*1109 FILLER_38_253
*1110 FILLER_38_265
*1111 FILLER_38_27
*1112 FILLER_38_277
*1113 FILLER_38_289
*1114 FILLER_38_29
*1115 FILLER_38_297
*1116 FILLER_38_3
*1117 FILLER_38_41
*1118 FILLER_38_53
*1119 FILLER_38_65
*1120 FILLER_38_76
*1121 FILLER_38_85
*1122 FILLER_38_97
*1123 FILLER_39_105
*1124 FILLER_39_111
*1125 FILLER_39_113
*1126 FILLER_39_125
*1127 FILLER_39_137
*1128 FILLER_39_149
*1129 FILLER_39_15
*1130 FILLER_39_161
*1131 FILLER_39_167
*1132 FILLER_39_169
*1133 FILLER_39_181
*1134 FILLER_39_193
*1135 FILLER_39_205
*1136 FILLER_39_217
*1137 FILLER_39_223
*1138 FILLER_39_225
*1139 FILLER_39_237
*1140 FILLER_39_249
*1141 FILLER_39_261
*1142 FILLER_39_273
*1143 FILLER_39_279
*1144 FILLER_39_281
*1145 FILLER_39_293
*1146 FILLER_39_3
*1147 FILLER_39_35
*1148 FILLER_39_47
*1149 FILLER_39_55
*1150 FILLER_39_57
*1151 FILLER_39_69
*1152 FILLER_39_81
*1153 FILLER_39_93
*1154 FILLER_3_105
*1155 FILLER_3_111
*1156 FILLER_3_113
*1157 FILLER_3_125
*1158 FILLER_3_137
*1159 FILLER_3_149
*1160 FILLER_3_161
*1161 FILLER_3_167
*1162 FILLER_3_169
*1163 FILLER_3_181
*1164 FILLER_3_193
*1165 FILLER_3_205
*1166 FILLER_3_217
*1167 FILLER_3_223
*1168 FILLER_3_225
*1169 FILLER_3_237
*1170 FILLER_3_24
*1171 FILLER_3_249
*1172 FILLER_3_261
*1173 FILLER_3_273
*1174 FILLER_3_279
*1175 FILLER_3_281
*1176 FILLER_3_293
*1177 FILLER_3_3
*1178 FILLER_3_44
*1179 FILLER_3_57
*1180 FILLER_3_69
*1181 FILLER_3_81
*1182 FILLER_3_93
*1183 FILLER_40_109
*1184 FILLER_40_121
*1185 FILLER_40_133
*1186 FILLER_40_139
*1187 FILLER_40_141
*1188 FILLER_40_15
*1189 FILLER_40_153
*1190 FILLER_40_165
*1191 FILLER_40_177
*1192 FILLER_40_189
*1193 FILLER_40_195
*1194 FILLER_40_197
*1195 FILLER_40_209
*1196 FILLER_40_221
*1197 FILLER_40_233
*1198 FILLER_40_245
*1199 FILLER_40_251
*1200 FILLER_40_253
*1201 FILLER_40_265
*1202 FILLER_40_27
*1203 FILLER_40_277
*1204 FILLER_40_289
*1205 FILLER_40_29
*1206 FILLER_40_297
*1207 FILLER_40_3
*1208 FILLER_40_41
*1209 FILLER_40_53
*1210 FILLER_40_65
*1211 FILLER_40_77
*1212 FILLER_40_83
*1213 FILLER_40_85
*1214 FILLER_40_97
*1215 FILLER_41_105
*1216 FILLER_41_111
*1217 FILLER_41_113
*1218 FILLER_41_125
*1219 FILLER_41_137
*1220 FILLER_41_149
*1221 FILLER_41_15
*1222 FILLER_41_161
*1223 FILLER_41_167
*1224 FILLER_41_169
*1225 FILLER_41_181
*1226 FILLER_41_193
*1227 FILLER_41_205
*1228 FILLER_41_217
*1229 FILLER_41_223
*1230 FILLER_41_225
*1231 FILLER_41_237
*1232 FILLER_41_249
*1233 FILLER_41_261
*1234 FILLER_41_27
*1235 FILLER_41_273
*1236 FILLER_41_279
*1237 FILLER_41_281
*1238 FILLER_41_293
*1239 FILLER_41_3
*1240 FILLER_41_39
*1241 FILLER_41_51
*1242 FILLER_41_55
*1243 FILLER_41_57
*1244 FILLER_41_69
*1245 FILLER_41_81
*1246 FILLER_41_93
*1247 FILLER_42_109
*1248 FILLER_42_121
*1249 FILLER_42_133
*1250 FILLER_42_139
*1251 FILLER_42_141
*1252 FILLER_42_15
*1253 FILLER_42_153
*1254 FILLER_42_165
*1255 FILLER_42_177
*1256 FILLER_42_189
*1257 FILLER_42_195
*1258 FILLER_42_197
*1259 FILLER_42_209
*1260 FILLER_42_221
*1261 FILLER_42_233
*1262 FILLER_42_245
*1263 FILLER_42_251
*1264 FILLER_42_253
*1265 FILLER_42_265
*1266 FILLER_42_27
*1267 FILLER_42_277
*1268 FILLER_42_289
*1269 FILLER_42_29
*1270 FILLER_42_297
*1271 FILLER_42_3
*1272 FILLER_42_41
*1273 FILLER_42_53
*1274 FILLER_42_65
*1275 FILLER_42_77
*1276 FILLER_42_83
*1277 FILLER_42_85
*1278 FILLER_42_97
*1279 FILLER_43_105
*1280 FILLER_43_111
*1281 FILLER_43_113
*1282 FILLER_43_125
*1283 FILLER_43_137
*1284 FILLER_43_149
*1285 FILLER_43_15
*1286 FILLER_43_161
*1287 FILLER_43_167
*1288 FILLER_43_169
*1289 FILLER_43_181
*1290 FILLER_43_193
*1291 FILLER_43_205
*1292 FILLER_43_217
*1293 FILLER_43_223
*1294 FILLER_43_225
*1295 FILLER_43_237
*1296 FILLER_43_249
*1297 FILLER_43_261
*1298 FILLER_43_27
*1299 FILLER_43_273
*1300 FILLER_43_279
*1301 FILLER_43_281
*1302 FILLER_43_293
*1303 FILLER_43_3
*1304 FILLER_43_39
*1305 FILLER_43_51
*1306 FILLER_43_55
*1307 FILLER_43_57
*1308 FILLER_43_69
*1309 FILLER_43_81
*1310 FILLER_43_93
*1311 FILLER_44_109
*1312 FILLER_44_121
*1313 FILLER_44_133
*1314 FILLER_44_139
*1315 FILLER_44_141
*1316 FILLER_44_15
*1317 FILLER_44_153
*1318 FILLER_44_165
*1319 FILLER_44_177
*1320 FILLER_44_189
*1321 FILLER_44_195
*1322 FILLER_44_197
*1323 FILLER_44_209
*1324 FILLER_44_221
*1325 FILLER_44_233
*1326 FILLER_44_245
*1327 FILLER_44_251
*1328 FILLER_44_253
*1329 FILLER_44_265
*1330 FILLER_44_27
*1331 FILLER_44_277
*1332 FILLER_44_289
*1333 FILLER_44_29
*1334 FILLER_44_297
*1335 FILLER_44_3
*1336 FILLER_44_41
*1337 FILLER_44_53
*1338 FILLER_44_65
*1339 FILLER_44_77
*1340 FILLER_44_83
*1341 FILLER_44_85
*1342 FILLER_44_97
*1343 FILLER_45_105
*1344 FILLER_45_111
*1345 FILLER_45_113
*1346 FILLER_45_125
*1347 FILLER_45_137
*1348 FILLER_45_149
*1349 FILLER_45_15
*1350 FILLER_45_161
*1351 FILLER_45_167
*1352 FILLER_45_169
*1353 FILLER_45_181
*1354 FILLER_45_193
*1355 FILLER_45_205
*1356 FILLER_45_217
*1357 FILLER_45_223
*1358 FILLER_45_225
*1359 FILLER_45_237
*1360 FILLER_45_249
*1361 FILLER_45_261
*1362 FILLER_45_27
*1363 FILLER_45_273
*1364 FILLER_45_279
*1365 FILLER_45_281
*1366 FILLER_45_293
*1367 FILLER_45_3
*1368 FILLER_45_39
*1369 FILLER_45_51
*1370 FILLER_45_55
*1371 FILLER_45_57
*1372 FILLER_45_69
*1373 FILLER_45_81
*1374 FILLER_45_93
*1375 FILLER_46_109
*1376 FILLER_46_121
*1377 FILLER_46_133
*1378 FILLER_46_139
*1379 FILLER_46_141
*1380 FILLER_46_15
*1381 FILLER_46_153
*1382 FILLER_46_165
*1383 FILLER_46_177
*1384 FILLER_46_189
*1385 FILLER_46_195
*1386 FILLER_46_197
*1387 FILLER_46_209
*1388 FILLER_46_221
*1389 FILLER_46_233
*1390 FILLER_46_245
*1391 FILLER_46_251
*1392 FILLER_46_253
*1393 FILLER_46_265
*1394 FILLER_46_27
*1395 FILLER_46_277
*1396 FILLER_46_289
*1397 FILLER_46_29
*1398 FILLER_46_297
*1399 FILLER_46_3
*1400 FILLER_46_41
*1401 FILLER_46_53
*1402 FILLER_46_65
*1403 FILLER_46_77
*1404 FILLER_46_83
*1405 FILLER_46_85
*1406 FILLER_46_97
*1407 FILLER_47_105
*1408 FILLER_47_111
*1409 FILLER_47_113
*1410 FILLER_47_125
*1411 FILLER_47_137
*1412 FILLER_47_149
*1413 FILLER_47_15
*1414 FILLER_47_161
*1415 FILLER_47_167
*1416 FILLER_47_169
*1417 FILLER_47_181
*1418 FILLER_47_193
*1419 FILLER_47_205
*1420 FILLER_47_217
*1421 FILLER_47_223
*1422 FILLER_47_225
*1423 FILLER_47_237
*1424 FILLER_47_249
*1425 FILLER_47_261
*1426 FILLER_47_27
*1427 FILLER_47_273
*1428 FILLER_47_279
*1429 FILLER_47_281
*1430 FILLER_47_293
*1431 FILLER_47_3
*1432 FILLER_47_39
*1433 FILLER_47_51
*1434 FILLER_47_55
*1435 FILLER_47_57
*1436 FILLER_47_69
*1437 FILLER_47_81
*1438 FILLER_47_93
*1439 FILLER_48_109
*1440 FILLER_48_121
*1441 FILLER_48_133
*1442 FILLER_48_139
*1443 FILLER_48_141
*1444 FILLER_48_15
*1445 FILLER_48_153
*1446 FILLER_48_165
*1447 FILLER_48_177
*1448 FILLER_48_189
*1449 FILLER_48_195
*1450 FILLER_48_197
*1451 FILLER_48_209
*1452 FILLER_48_221
*1453 FILLER_48_233
*1454 FILLER_48_245
*1455 FILLER_48_251
*1456 FILLER_48_253
*1457 FILLER_48_265
*1458 FILLER_48_27
*1459 FILLER_48_277
*1460 FILLER_48_289
*1461 FILLER_48_29
*1462 FILLER_48_297
*1463 FILLER_48_3
*1464 FILLER_48_41
*1465 FILLER_48_53
*1466 FILLER_48_65
*1467 FILLER_48_77
*1468 FILLER_48_83
*1469 FILLER_48_85
*1470 FILLER_48_97
*1471 FILLER_49_105
*1472 FILLER_49_111
*1473 FILLER_49_113
*1474 FILLER_49_125
*1475 FILLER_49_137
*1476 FILLER_49_149
*1477 FILLER_49_15
*1478 FILLER_49_161
*1479 FILLER_49_167
*1480 FILLER_49_169
*1481 FILLER_49_181
*1482 FILLER_49_193
*1483 FILLER_49_205
*1484 FILLER_49_217
*1485 FILLER_49_223
*1486 FILLER_49_225
*1487 FILLER_49_237
*1488 FILLER_49_249
*1489 FILLER_49_261
*1490 FILLER_49_27
*1491 FILLER_49_273
*1492 FILLER_49_279
*1493 FILLER_49_281
*1494 FILLER_49_293
*1495 FILLER_49_3
*1496 FILLER_49_39
*1497 FILLER_49_51
*1498 FILLER_49_55
*1499 FILLER_49_57
*1500 FILLER_49_69
*1501 FILLER_49_81
*1502 FILLER_49_93
*1503 FILLER_4_109
*1504 FILLER_4_121
*1505 FILLER_4_133
*1506 FILLER_4_139
*1507 FILLER_4_141
*1508 FILLER_4_153
*1509 FILLER_4_165
*1510 FILLER_4_177
*1511 FILLER_4_189
*1512 FILLER_4_195
*1513 FILLER_4_197
*1514 FILLER_4_209
*1515 FILLER_4_221
*1516 FILLER_4_233
*1517 FILLER_4_24
*1518 FILLER_4_245
*1519 FILLER_4_251
*1520 FILLER_4_253
*1521 FILLER_4_265
*1522 FILLER_4_277
*1523 FILLER_4_289
*1524 FILLER_4_29
*1525 FILLER_4_297
*1526 FILLER_4_3
*1527 FILLER_4_47
*1528 FILLER_4_59
*1529 FILLER_4_71
*1530 FILLER_4_83
*1531 FILLER_4_85
*1532 FILLER_4_97
*1533 FILLER_50_109
*1534 FILLER_50_121
*1535 FILLER_50_133
*1536 FILLER_50_139
*1537 FILLER_50_141
*1538 FILLER_50_15
*1539 FILLER_50_153
*1540 FILLER_50_165
*1541 FILLER_50_177
*1542 FILLER_50_189
*1543 FILLER_50_195
*1544 FILLER_50_197
*1545 FILLER_50_209
*1546 FILLER_50_221
*1547 FILLER_50_233
*1548 FILLER_50_245
*1549 FILLER_50_251
*1550 FILLER_50_253
*1551 FILLER_50_265
*1552 FILLER_50_27
*1553 FILLER_50_277
*1554 FILLER_50_289
*1555 FILLER_50_29
*1556 FILLER_50_297
*1557 FILLER_50_3
*1558 FILLER_50_41
*1559 FILLER_50_53
*1560 FILLER_50_65
*1561 FILLER_50_77
*1562 FILLER_50_83
*1563 FILLER_50_85
*1564 FILLER_50_97
*1565 FILLER_51_105
*1566 FILLER_51_111
*1567 FILLER_51_113
*1568 FILLER_51_125
*1569 FILLER_51_137
*1570 FILLER_51_149
*1571 FILLER_51_15
*1572 FILLER_51_161
*1573 FILLER_51_167
*1574 FILLER_51_169
*1575 FILLER_51_181
*1576 FILLER_51_193
*1577 FILLER_51_205
*1578 FILLER_51_217
*1579 FILLER_51_223
*1580 FILLER_51_225
*1581 FILLER_51_237
*1582 FILLER_51_249
*1583 FILLER_51_261
*1584 FILLER_51_27
*1585 FILLER_51_273
*1586 FILLER_51_279
*1587 FILLER_51_281
*1588 FILLER_51_293
*1589 FILLER_51_3
*1590 FILLER_51_39
*1591 FILLER_51_51
*1592 FILLER_51_55
*1593 FILLER_51_57
*1594 FILLER_51_69
*1595 FILLER_51_81
*1596 FILLER_51_93
*1597 FILLER_52_109
*1598 FILLER_52_121
*1599 FILLER_52_133
*1600 FILLER_52_139
*1601 FILLER_52_141
*1602 FILLER_52_15
*1603 FILLER_52_153
*1604 FILLER_52_165
*1605 FILLER_52_177