*SPEF "ieee 1481-1999"
*DESIGN "tiny_kinda_pic"
*DATE "11:11:11 Fri 11 11, 1111"
*VENDOR "OpenRCX"
*PROGRAM "Parallel Extraction"
*VERSION "1.0"
*DESIGN_FLOW "NAME_SCOPE LOCAL" "PIN_CAP NONE"
*DIVIDER /
*DELIMITER :
*BUS_DELIMITER []
*T_UNIT 1 NS
*C_UNIT 1 PF
*R_UNIT 1 OHM
*L_UNIT 1 HENRY

*NAME_MAP
*1 io_in[0]
*2 io_in[1]
*3 io_in[2]
*4 io_in[3]
*5 io_in[4]
*6 io_in[5]
*7 io_in[6]
*8 io_in[7]
*9 io_out[0]
*10 io_out[1]
*11 io_out[2]
*12 io_out[3]
*13 io_out[4]
*14 io_out[5]
*15 io_out[6]
*16 io_out[7]
*19 _0000_
*20 _0001_
*21 _0002_
*22 _0003_
*23 _0004_
*24 _0005_
*25 _0006_
*26 _0007_
*27 _0008_
*28 _0009_
*29 _0010_
*30 _0011_
*31 _0012_
*32 _0013_
*33 _0014_
*34 _0015_
*35 _0016_
*36 _0017_
*37 _0018_
*38 _0019_
*39 _0020_
*40 _0021_
*41 _0022_
*42 _0023_
*43 _0024_
*44 _0025_
*45 _0026_
*46 _0027_
*47 _0028_
*48 _0029_
*49 _0030_
*50 _0031_
*51 _0032_
*52 _0033_
*53 _0034_
*54 _0035_
*55 _0036_
*56 _0037_
*57 _0038_
*58 _0039_
*59 _0040_
*60 _0041_
*61 _0042_
*62 _0043_
*63 _0044_
*64 _0045_
*65 _0046_
*66 _0047_
*67 _0048_
*68 _0049_
*69 _0050_
*70 _0051_
*71 _0052_
*72 _0053_
*73 _0054_
*74 _0055_
*75 _0056_
*76 _0057_
*77 _0058_
*78 _0059_
*79 _0060_
*80 _0061_
*81 _0062_
*82 _0063_
*83 _0064_
*84 _0065_
*85 _0066_
*86 _0067_
*87 _0068_
*88 _0069_
*89 _0070_
*90 _0071_
*91 _0072_
*92 _0073_
*93 _0074_
*94 _0075_
*95 _0076_
*96 _0077_
*97 _0078_
*98 _0079_
*99 _0080_
*100 _0081_
*101 _0082_
*102 _0083_
*103 _0084_
*104 _0085_
*105 _0086_
*106 _0087_
*107 _0088_
*108 _0089_
*109 _0090_
*110 _0091_
*111 _0092_
*112 _0093_
*113 _0094_
*114 _0095_
*115 _0096_
*116 _0097_
*117 _0098_
*118 _0099_
*119 _0100_
*120 _0101_
*121 _0102_
*122 _0103_
*123 _0104_
*124 _0105_
*125 _0106_
*126 _0107_
*127 _0108_
*128 _0109_
*129 _0110_
*130 _0111_
*131 _0112_
*132 _0113_
*133 _0114_
*134 _0115_
*135 _0116_
*136 _0117_
*137 _0118_
*138 _0119_
*139 _0120_
*140 _0121_
*141 _0122_
*142 _0123_
*143 _0124_
*144 _0125_
*145 _0126_
*146 _0127_
*147 _0128_
*148 _0129_
*149 _0130_
*150 _0131_
*151 _0132_
*152 _0133_
*153 _0134_
*154 _0135_
*155 _0136_
*156 _0137_
*157 _0138_
*158 _0139_
*159 _0140_
*160 _0141_
*161 _0142_
*162 _0143_
*163 _0144_
*164 _0145_
*165 _0146_
*166 _0147_
*167 _0148_
*168 _0149_
*169 _0150_
*170 _0151_
*171 _0152_
*172 _0153_
*173 _0154_
*174 _0155_
*175 _0156_
*176 _0157_
*177 _0158_
*178 _0159_
*179 _0160_
*180 _0161_
*181 _0162_
*182 _0163_
*183 _0164_
*184 _0165_
*185 _0166_
*186 _0167_
*187 _0168_
*188 _0169_
*189 _0170_
*190 _0171_
*191 _0172_
*192 _0173_
*193 _0174_
*194 _0175_
*195 _0176_
*196 _0177_
*197 _0178_
*198 _0179_
*199 _0180_
*200 _0181_
*201 _0182_
*202 _0183_
*203 _0184_
*204 _0185_
*205 _0186_
*206 _0187_
*207 _0188_
*208 _0189_
*209 _0190_
*210 _0191_
*211 _0192_
*212 _0193_
*213 _0194_
*214 _0195_
*215 _0196_
*216 _0197_
*217 _0198_
*218 _0199_
*219 _0200_
*220 _0201_
*221 _0202_
*222 _0203_
*223 _0204_
*224 _0205_
*225 _0206_
*226 _0207_
*227 _0208_
*228 _0209_
*229 _0210_
*230 _0211_
*231 _0212_
*232 _0213_
*233 _0214_
*234 _0215_
*235 _0216_
*236 _0217_
*237 _0218_
*238 _0219_
*239 _0220_
*240 _0221_
*241 _0222_
*242 _0223_
*243 _0224_
*244 _0225_
*245 _0226_
*246 _0227_
*247 _0228_
*248 _0229_
*249 _0230_
*250 _0231_
*251 _0232_
*252 _0233_
*253 _0234_
*254 _0235_
*255 _0236_
*256 _0237_
*257 _0238_
*258 _0239_
*259 _0240_
*260 _0241_
*261 _0242_
*262 _0243_
*263 _0244_
*264 _0245_
*265 _0246_
*266 _0247_
*267 _0248_
*268 _0249_
*269 _0250_
*270 _0251_
*271 _0252_
*272 _0253_
*273 _0254_
*274 _0255_
*275 _0256_
*276 _0257_
*277 _0258_
*278 _0259_
*279 _0260_
*280 _0261_
*281 _0262_
*282 _0263_
*283 _0264_
*284 _0265_
*285 _0266_
*286 _0267_
*287 _0268_
*288 _0269_
*289 _0270_
*290 _0271_
*291 _0272_
*292 _0273_
*293 _0274_
*294 _0275_
*295 _0276_
*296 _0277_
*297 _0278_
*298 _0279_
*299 _0280_
*300 _0281_
*301 _0282_
*302 _0283_
*303 _0284_
*304 _0285_
*305 _0286_
*306 _0287_
*307 _0288_
*308 _0289_
*309 _0290_
*310 _0291_
*311 _0292_
*312 _0293_
*313 _0294_
*314 _0295_
*315 _0296_
*316 _0297_
*317 _0298_
*318 _0299_
*319 _0300_
*320 _0301_
*321 _0302_
*322 _0303_
*323 _0304_
*324 _0305_
*325 _0306_
*326 _0307_
*327 _0308_
*328 _0309_
*329 _0310_
*330 _0311_
*331 _0312_
*332 _0313_
*333 _0314_
*334 _0315_
*335 _0316_
*336 _0317_
*337 _0318_
*338 _0319_
*339 _0320_
*340 _0321_
*341 _0322_
*342 _0323_
*343 _0324_
*344 _0325_
*345 _0326_
*346 _0327_
*347 _0328_
*348 _0329_
*349 _0330_
*350 _0331_
*351 _0332_
*352 _0333_
*353 _0334_
*354 _0335_
*355 _0336_
*356 _0337_
*357 _0338_
*358 _0339_
*359 _0340_
*360 _0341_
*361 _0342_
*362 _0343_
*363 _0344_
*364 _0345_
*365 _0346_
*366 _0347_
*367 _0348_
*368 _0349_
*369 _0350_
*370 _0351_
*371 _0352_
*372 _0353_
*373 _0354_
*374 _0355_
*375 _0356_
*376 _0357_
*377 _0358_
*378 _0359_
*379 _0360_
*380 _0361_
*381 _0362_
*382 _0363_
*383 _0364_
*384 _0365_
*385 _0366_
*386 _0367_
*387 _0368_
*388 _0369_
*389 _0370_
*390 _0371_
*391 _0372_
*392 _0373_
*393 _0374_
*394 _0375_
*395 _0376_
*396 _0377_
*397 _0378_
*398 _0379_
*399 _0380_
*400 _0381_
*401 _0382_
*402 _0383_
*403 _0384_
*404 _0385_
*405 _0386_
*406 _0387_
*407 _0388_
*408 _0389_
*409 _0390_
*410 _0391_
*411 _0392_
*412 _0393_
*413 _0394_
*414 _0395_
*415 _0396_
*416 _0397_
*417 _0398_
*418 _0399_
*419 _0400_
*420 _0401_
*421 _0402_
*422 _0403_
*423 _0404_
*424 _0405_
*425 _0406_
*426 _0407_
*427 _0408_
*428 _0409_
*429 _0410_
*430 _0411_
*431 _0412_
*432 _0413_
*433 _0414_
*434 _0415_
*435 _0416_
*436 _0417_
*437 _0418_
*438 _0419_
*439 _0420_
*440 _0421_
*441 _0422_
*442 _0423_
*443 _0424_
*444 _0425_
*445 _0426_
*446 _0427_
*447 _0428_
*448 _0429_
*449 _0430_
*450 _0431_
*451 _0432_
*452 _0433_
*453 _0434_
*454 _0435_
*455 _0436_
*456 _0437_
*457 _0438_
*458 _0439_
*459 _0440_
*460 _0441_
*461 _0442_
*462 _0443_
*463 _0444_
*464 _0445_
*465 _0446_
*466 _0447_
*467 _0448_
*468 _0449_
*469 _0450_
*470 _0451_
*471 _0452_
*472 _0453_
*473 _0454_
*474 _0455_
*475 _0456_
*476 _0457_
*477 _0458_
*478 _0459_
*479 _0460_
*480 _0461_
*481 _0462_
*482 _0463_
*483 _0464_
*484 _0465_
*485 _0466_
*486 _0467_
*487 _0468_
*488 _0469_
*489 _0470_
*490 _0471_
*491 _0472_
*492 _0473_
*493 _0474_
*494 _0475_
*495 _0476_
*496 _0477_
*497 _0478_
*498 _0479_
*499 _0480_
*500 _0481_
*501 _0482_
*502 _0483_
*503 _0484_
*504 _0485_
*505 _0486_
*506 _0487_
*507 _0488_
*508 _0489_
*509 _0490_
*510 _0491_
*511 _0492_
*512 _0493_
*513 _0494_
*514 _0495_
*515 _0496_
*516 _0497_
*517 _0498_
*518 _0499_
*519 _0500_
*520 _0501_
*521 _0502_
*522 _0503_
*523 _0504_
*524 _0505_
*525 _0506_
*526 _0507_
*527 _0508_
*528 _0509_
*529 _0510_
*530 _0511_
*531 _0512_
*532 _0513_
*533 _0514_
*534 _0515_
*535 _0516_
*536 _0517_
*537 _0518_
*538 _0519_
*539 _0520_
*540 _0521_
*541 _0522_
*542 _0523_
*543 _0524_
*544 _0525_
*545 _0526_
*546 _0527_
*547 _0528_
*548 _0529_
*549 _0530_
*550 _0531_
*551 _0532_
*552 _0533_
*553 _0534_
*554 _0535_
*555 _0536_
*556 _0537_
*557 _0538_
*558 _0539_
*559 _0540_
*560 _0541_
*561 _0542_
*562 _0543_
*563 _0544_
*564 _0545_
*565 _0546_
*566 _0547_
*567 _0548_
*568 _0549_
*569 _0550_
*570 _0551_
*571 _0552_
*572 _0553_
*573 _0554_
*574 _0555_
*575 _0556_
*576 _0557_
*577 _0558_
*578 _0559_
*579 _0560_
*580 _0561_
*581 _0562_
*582 _0563_
*583 _0564_
*584 _0565_
*585 _0566_
*586 _0567_
*587 _0568_
*588 _0569_
*589 _0570_
*590 _0571_
*591 _0572_
*592 _0573_
*593 _0574_
*594 _0575_
*595 _0576_
*596 _0577_
*597 _0578_
*598 _0579_
*599 _0580_
*600 _0581_
*601 _0582_
*602 _0583_
*603 _0584_
*604 _0585_
*605 _0586_
*606 _0587_
*607 _0588_
*608 _0589_
*609 _0590_
*610 _0591_
*611 _0592_
*612 _0593_
*613 _0594_
*614 _0595_
*615 _0596_
*616 _0597_
*617 _0598_
*618 _0599_
*619 _0600_
*620 _0601_
*621 _0602_
*622 _0603_
*623 _0604_
*624 _0605_
*625 _0606_
*626 clknet_0_io_in[0]
*627 clknet_3_0__leaf_io_in[0]
*628 clknet_3_1__leaf_io_in[0]
*629 clknet_3_2__leaf_io_in[0]
*630 clknet_3_3__leaf_io_in[0]
*631 clknet_3_4__leaf_io_in[0]
*632 clknet_3_5__leaf_io_in[0]
*633 clknet_3_6__leaf_io_in[0]
*634 clknet_3_7__leaf_io_in[0]
*635 net1
*636 net10
*637 net11
*638 net12
*639 net13
*640 net14
*641 net15
*642 net16
*643 net17
*644 net18
*645 net19
*646 net2
*647 net20
*648 net21
*649 net22
*650 net23
*651 net24
*652 net25
*653 net26
*654 net27
*655 net28
*656 net29
*657 net3
*658 net30
*659 net31
*660 net32
*661 net33
*662 net34
*663 net35
*664 net36
*665 net37
*666 net38
*667 net39
*668 net4
*669 net40
*670 net41
*671 net42
*672 net43
*673 net44
*674 net45
*675 net46
*676 net47
*677 net48
*678 net49
*679 net5
*680 net50
*681 net51
*682 net52
*683 net53
*684 net54
*685 net55
*686 net56
*687 net57
*688 net58
*689 net59
*690 net6
*691 net60
*692 net61
*693 net62
*694 net63
*695 net64
*696 net65
*697 net66
*698 net67
*699 net68
*700 net69
*701 net7
*702 net70
*703 net8
*704 net9
*705 pic_i\.next_pc\[0\]
*706 pic_i\.next_pc\[1\]
*707 pic_i\.next_pc\[2\]
*708 pic_i\.next_pc\[3\]
*709 pic_i\.next_skip
*710 pic_i\.next_skip_zero
*711 pic_i\.pc\[0\]
*712 pic_i\.pc\[1\]
*713 pic_i\.pc\[2\]
*714 pic_i\.pc\[3\]
*715 pic_i\.phase\[0\]
*716 pic_i\.phase\[1\]
*717 pic_i\.reg_we
*718 pic_i\.regf_data\[0\]\[0\]
*719 pic_i\.regf_data\[0\]\[1\]
*720 pic_i\.regf_data\[0\]\[2\]
*721 pic_i\.regf_data\[0\]\[3\]
*722 pic_i\.regf_data\[0\]\[4\]
*723 pic_i\.regf_data\[0\]\[5\]
*724 pic_i\.regf_data\[0\]\[6\]
*725 pic_i\.regf_data\[0\]\[7\]
*726 pic_i\.regf_data\[1\]\[0\]
*727 pic_i\.regf_data\[1\]\[1\]
*728 pic_i\.regf_data\[1\]\[2\]
*729 pic_i\.regf_data\[1\]\[3\]
*730 pic_i\.regf_data\[1\]\[4\]
*731 pic_i\.regf_data\[1\]\[5\]
*732 pic_i\.regf_data\[1\]\[6\]
*733 pic_i\.regf_data\[1\]\[7\]
*734 pic_i\.regf_data\[2\]\[0\]
*735 pic_i\.regf_data\[2\]\[1\]
*736 pic_i\.regf_data\[2\]\[2\]
*737 pic_i\.regf_data\[2\]\[3\]
*738 pic_i\.regf_data\[2\]\[4\]
*739 pic_i\.regf_data\[2\]\[5\]
*740 pic_i\.regf_data\[2\]\[6\]
*741 pic_i\.regf_data\[2\]\[7\]
*742 pic_i\.regf_data\[3\]\[0\]
*743 pic_i\.regf_data\[3\]\[1\]
*744 pic_i\.regf_data\[3\]\[2\]
*745 pic_i\.regf_data\[3\]\[3\]
*746 pic_i\.regf_data\[3\]\[4\]
*747 pic_i\.regf_data\[3\]\[5\]
*748 pic_i\.regf_data\[3\]\[6\]
*749 pic_i\.regf_data\[3\]\[7\]
*750 pic_i\.regf_data\[4\]\[0\]
*751 pic_i\.regf_data\[4\]\[1\]
*752 pic_i\.regf_data\[4\]\[2\]
*753 pic_i\.regf_data\[4\]\[3\]
*754 pic_i\.regf_data\[4\]\[4\]
*755 pic_i\.regf_data\[4\]\[5\]
*756 pic_i\.regf_data\[4\]\[6\]
*757 pic_i\.regf_data\[4\]\[7\]
*758 pic_i\.regf_data\[5\]\[0\]
*759 pic_i\.regf_data\[5\]\[1\]
*760 pic_i\.regf_data\[5\]\[2\]
*761 pic_i\.regf_data\[5\]\[3\]
*762 pic_i\.regf_data\[5\]\[4\]
*763 pic_i\.regf_data\[5\]\[5\]
*764 pic_i\.regf_data\[5\]\[6\]
*765 pic_i\.regf_data\[5\]\[7\]
*766 pic_i\.regf_we
*767 pic_i\.result\[0\]
*768 pic_i\.result\[1\]
*769 pic_i\.result\[2\]
*770 pic_i\.result\[3\]
*771 pic_i\.result\[4\]
*772 pic_i\.result\[5\]
*773 pic_i\.result\[6\]
*774 pic_i\.result\[7\]
*775 pic_i\.skip
*776 pic_i\.w\[0\]
*777 pic_i\.w\[1\]
*778 pic_i\.w\[2\]
*779 pic_i\.w\[3\]
*780 pic_i\.w\[4\]
*781 pic_i\.w\[5\]
*782 pic_i\.w\[6\]
*783 pic_i\.w\[7\]
*784 pic_i\.w_we
*785 pic_i\.word\[0\]\.word_we
*786 pic_i\.word\[1\]\.word_we
*787 pic_i\.word\[2\]\.word_we
*788 pic_i\.word\[3\]\.word_we
*789 pic_i\.word\[4\]\.word_we
*790 pic_i\.word\[5\]\.word_we
*791 progmem_i\.data\[0\]\[0\]
*792 progmem_i\.data\[0\]\[10\]
*793 progmem_i\.data\[0\]\[11\]
*794 progmem_i\.data\[0\]\[1\]
*795 progmem_i\.data\[0\]\[2\]
*796 progmem_i\.data\[0\]\[3\]
*797 progmem_i\.data\[0\]\[4\]
*798 progmem_i\.data\[0\]\[5\]
*799 progmem_i\.data\[0\]\[6\]
*800 progmem_i\.data\[0\]\[7\]
*801 progmem_i\.data\[0\]\[8\]
*802 progmem_i\.data\[0\]\[9\]
*803 progmem_i\.data\[10\]\[0\]
*804 progmem_i\.data\[10\]\[10\]
*805 progmem_i\.data\[10\]\[11\]
*806 progmem_i\.data\[10\]\[1\]
*807 progmem_i\.data\[10\]\[2\]
*808 progmem_i\.data\[10\]\[3\]
*809 progmem_i\.data\[10\]\[4\]
*810 progmem_i\.data\[10\]\[5\]
*811 progmem_i\.data\[10\]\[6\]
*812 progmem_i\.data\[10\]\[7\]
*813 progmem_i\.data\[10\]\[8\]
*814 progmem_i\.data\[10\]\[9\]
*815 progmem_i\.data\[11\]\[0\]
*816 progmem_i\.data\[11\]\[10\]
*817 progmem_i\.data\[11\]\[11\]
*818 progmem_i\.data\[11\]\[1\]
*819 progmem_i\.data\[11\]\[2\]
*820 progmem_i\.data\[11\]\[3\]
*821 progmem_i\.data\[11\]\[4\]
*822 progmem_i\.data\[11\]\[5\]
*823 progmem_i\.data\[11\]\[6\]
*824 progmem_i\.data\[11\]\[7\]
*825 progmem_i\.data\[11\]\[8\]
*826 progmem_i\.data\[11\]\[9\]
*827 progmem_i\.data\[12\]\[0\]
*828 progmem_i\.data\[12\]\[10\]
*829 progmem_i\.data\[12\]\[11\]
*830 progmem_i\.data\[12\]\[1\]
*831 progmem_i\.data\[12\]\[2\]
*832 progmem_i\.data\[12\]\[3\]
*833 progmem_i\.data\[12\]\[4\]
*834 progmem_i\.data\[12\]\[5\]
*835 progmem_i\.data\[12\]\[6\]
*836 progmem_i\.data\[12\]\[7\]
*837 progmem_i\.data\[12\]\[8\]
*838 progmem_i\.data\[12\]\[9\]
*839 progmem_i\.data\[13\]\[0\]
*840 progmem_i\.data\[13\]\[10\]
*841 progmem_i\.data\[13\]\[11\]
*842 progmem_i\.data\[13\]\[1\]
*843 progmem_i\.data\[13\]\[2\]
*844 progmem_i\.data\[13\]\[3\]
*845 progmem_i\.data\[13\]\[4\]
*846 progmem_i\.data\[13\]\[5\]
*847 progmem_i\.data\[13\]\[6\]
*848 progmem_i\.data\[13\]\[7\]
*849 progmem_i\.data\[13\]\[8\]
*850 progmem_i\.data\[13\]\[9\]
*851 progmem_i\.data\[14\]\[0\]
*852 progmem_i\.data\[14\]\[10\]
*853 progmem_i\.data\[14\]\[11\]
*854 progmem_i\.data\[14\]\[1\]
*855 progmem_i\.data\[14\]\[2\]
*856 progmem_i\.data\[14\]\[3\]
*857 progmem_i\.data\[14\]\[4\]
*858 progmem_i\.data\[14\]\[5\]
*859 progmem_i\.data\[14\]\[6\]
*860 progmem_i\.data\[14\]\[7\]
*861 progmem_i\.data\[14\]\[8\]
*862 progmem_i\.data\[14\]\[9\]
*863 progmem_i\.data\[15\]\[0\]
*864 progmem_i\.data\[15\]\[10\]
*865 progmem_i\.data\[15\]\[11\]
*866 progmem_i\.data\[15\]\[1\]
*867 progmem_i\.data\[15\]\[2\]
*868 progmem_i\.data\[15\]\[3\]
*869 progmem_i\.data\[15\]\[4\]
*870 progmem_i\.data\[15\]\[5\]
*871 progmem_i\.data\[15\]\[6\]
*872 progmem_i\.data\[15\]\[7\]
*873 progmem_i\.data\[15\]\[8\]
*874 progmem_i\.data\[15\]\[9\]
*875 progmem_i\.data\[1\]\[0\]
*876 progmem_i\.data\[1\]\[10\]
*877 progmem_i\.data\[1\]\[11\]
*878 progmem_i\.data\[1\]\[1\]
*879 progmem_i\.data\[1\]\[2\]
*880 progmem_i\.data\[1\]\[3\]
*881 progmem_i\.data\[1\]\[4\]
*882 progmem_i\.data\[1\]\[5\]
*883 progmem_i\.data\[1\]\[6\]
*884 progmem_i\.data\[1\]\[7\]
*885 progmem_i\.data\[1\]\[8\]
*886 progmem_i\.data\[1\]\[9\]
*887 progmem_i\.data\[2\]\[0\]
*888 progmem_i\.data\[2\]\[10\]
*889 progmem_i\.data\[2\]\[11\]
*890 progmem_i\.data\[2\]\[1\]
*891 progmem_i\.data\[2\]\[2\]
*892 progmem_i\.data\[2\]\[3\]
*893 progmem_i\.data\[2\]\[4\]
*894 progmem_i\.data\[2\]\[5\]
*895 progmem_i\.data\[2\]\[6\]
*896 progmem_i\.data\[2\]\[7\]
*897 progmem_i\.data\[2\]\[8\]
*898 progmem_i\.data\[2\]\[9\]
*899 progmem_i\.data\[3\]\[0\]
*900 progmem_i\.data\[3\]\[10\]
*901 progmem_i\.data\[3\]\[11\]
*902 progmem_i\.data\[3\]\[1\]
*903 progmem_i\.data\[3\]\[2\]
*904 progmem_i\.data\[3\]\[3\]
*905 progmem_i\.data\[3\]\[4\]
*906 progmem_i\.data\[3\]\[5\]
*907 progmem_i\.data\[3\]\[6\]
*908 progmem_i\.data\[3\]\[7\]
*909 progmem_i\.data\[3\]\[8\]
*910 progmem_i\.data\[3\]\[9\]
*911 progmem_i\.data\[4\]\[0\]
*912 progmem_i\.data\[4\]\[10\]
*913 progmem_i\.data\[4\]\[11\]
*914 progmem_i\.data\[4\]\[1\]
*915 progmem_i\.data\[4\]\[2\]
*916 progmem_i\.data\[4\]\[3\]
*917 progmem_i\.data\[4\]\[4\]
*918 progmem_i\.data\[4\]\[5\]
*919 progmem_i\.data\[4\]\[6\]
*920 progmem_i\.data\[4\]\[7\]
*921 progmem_i\.data\[4\]\[8\]
*922 progmem_i\.data\[4\]\[9\]
*923 progmem_i\.data\[5\]\[0\]
*924 progmem_i\.data\[5\]\[10\]
*925 progmem_i\.data\[5\]\[11\]
*926 progmem_i\.data\[5\]\[1\]
*927 progmem_i\.data\[5\]\[2\]
*928 progmem_i\.data\[5\]\[3\]
*929 progmem_i\.data\[5\]\[4\]
*930 progmem_i\.data\[5\]\[5\]
*931 progmem_i\.data\[5\]\[6\]
*932 progmem_i\.data\[5\]\[7\]
*933 progmem_i\.data\[5\]\[8\]
*934 progmem_i\.data\[5\]\[9\]
*935 progmem_i\.data\[6\]\[0\]
*936 progmem_i\.data\[6\]\[10\]
*937 progmem_i\.data\[6\]\[11\]
*938 progmem_i\.data\[6\]\[1\]
*939 progmem_i\.data\[6\]\[2\]
*940 progmem_i\.data\[6\]\[3\]
*941 progmem_i\.data\[6\]\[4\]
*942 progmem_i\.data\[6\]\[5\]
*943 progmem_i\.data\[6\]\[6\]
*944 progmem_i\.data\[6\]\[7\]
*945 progmem_i\.data\[6\]\[8\]
*946 progmem_i\.data\[6\]\[9\]
*947 progmem_i\.data\[7\]\[0\]
*948 progmem_i\.data\[7\]\[10\]
*949 progmem_i\.data\[7\]\[11\]
*950 progmem_i\.data\[7\]\[1\]
*951 progmem_i\.data\[7\]\[2\]
*952 progmem_i\.data\[7\]\[3\]
*953 progmem_i\.data\[7\]\[4\]
*954 progmem_i\.data\[7\]\[5\]
*955 progmem_i\.data\[7\]\[6\]
*956 progmem_i\.data\[7\]\[7\]
*957 progmem_i\.data\[7\]\[8\]
*958 progmem_i\.data\[7\]\[9\]
*959 progmem_i\.data\[8\]\[0\]
*960 progmem_i\.data\[8\]\[10\]
*961 progmem_i\.data\[8\]\[11\]
*962 progmem_i\.data\[8\]\[1\]
*963 progmem_i\.data\[8\]\[2\]
*964 progmem_i\.data\[8\]\[3\]
*965 progmem_i\.data\[8\]\[4\]
*966 progmem_i\.data\[8\]\[5\]
*967 progmem_i\.data\[8\]\[6\]
*968 progmem_i\.data\[8\]\[7\]
*969 progmem_i\.data\[8\]\[8\]
*970 progmem_i\.data\[8\]\[9\]
*971 progmem_i\.data\[9\]\[0\]
*972 progmem_i\.data\[9\]\[10\]
*973 progmem_i\.data\[9\]\[11\]
*974 progmem_i\.data\[9\]\[1\]
*975 progmem_i\.data\[9\]\[2\]
*976 progmem_i\.data\[9\]\[3\]
*977 progmem_i\.data\[9\]\[4\]
*978 progmem_i\.data\[9\]\[5\]
*979 progmem_i\.data\[9\]\[6\]
*980 progmem_i\.data\[9\]\[7\]
*981 progmem_i\.data\[9\]\[8\]
*982 progmem_i\.data\[9\]\[9\]
*983 progmem_i\.write_sr\[0\]
*984 progmem_i\.write_sr\[10\]
*985 progmem_i\.write_sr\[11\]
*986 progmem_i\.write_sr\[12\]
*987 progmem_i\.write_sr\[13\]
*988 progmem_i\.write_sr\[14\]
*989 progmem_i\.write_sr\[15\]
*990 progmem_i\.write_sr\[16\]
*991 progmem_i\.write_sr\[17\]
*992 progmem_i\.write_sr\[18\]
*993 progmem_i\.write_sr\[19\]
*994 progmem_i\.write_sr\[1\]
*995 progmem_i\.write_sr\[20\]
*996 progmem_i\.write_sr\[21\]
*997 progmem_i\.write_sr\[22\]
*998 progmem_i\.write_sr\[23\]
*999 progmem_i\.write_sr\[24\]
*1000 progmem_i\.write_sr\[25\]
*1001 progmem_i\.write_sr\[26\]
*1002 progmem_i\.write_sr\[27\]
*1003 progmem_i\.write_sr\[2\]
*1004 progmem_i\.write_sr\[3\]
*1005 progmem_i\.write_sr\[4\]
*1006 progmem_i\.write_sr\[5\]
*1007 progmem_i\.write_sr\[6\]
*1008 progmem_i\.write_sr\[7\]
*1009 progmem_i\.write_sr\[8\]
*1010 progmem_i\.write_sr\[9\]
*1011 ANTENNA_1
*1012 ANTENNA_10
*1013 ANTENNA_11
*1014 ANTENNA_12
*1015 ANTENNA_13
*1016 ANTENNA_14
*1017 ANTENNA_15
*1018 ANTENNA_16
*1019 ANTENNA_2
*1020 ANTENNA_3
*1021 ANTENNA_4
*1022 ANTENNA_5
*1023 ANTENNA_6
*1024 ANTENNA_7
*1025 ANTENNA_8
*1026 ANTENNA_9
*1027 FILLER_0_103
*1028 FILLER_0_110
*1029 FILLER_0_113
*1030 FILLER_0_131
*1031 FILLER_0_138
*1032 FILLER_0_141
*1033 FILLER_0_147
*1034 FILLER_0_160
*1035 FILLER_0_169
*1036 FILLER_0_187
*1037 FILLER_0_194
*1038 FILLER_0_197
*1039 FILLER_0_206
*1040 FILLER_0_216
*1041 FILLER_0_22
*1042 FILLER_0_225
*1043 FILLER_0_233
*1044 FILLER_0_241
*1045 FILLER_0_249
*1046 FILLER_0_253
*1047 FILLER_0_259
*1048 FILLER_0_267
*1049 FILLER_0_279
*1050 FILLER_0_281
*1051 FILLER_0_29
*1052 FILLER_0_293
*1053 FILLER_0_3
*1054 FILLER_0_54
*1055 FILLER_0_57
*1056 FILLER_0_76
*1057 FILLER_0_85
*1058 FILLER_10_103
*1059 FILLER_10_116
*1060 FILLER_10_124
*1061 FILLER_10_138
*1062 FILLER_10_141
*1063 FILLER_10_146
*1064 FILLER_10_160
*1065 FILLER_10_170
*1066 FILLER_10_188
*1067 FILLER_10_197
*1068 FILLER_10_203
*1069 FILLER_10_211
*1070 FILLER_10_231
*1071 FILLER_10_247
*1072 FILLER_10_251
*1073 FILLER_10_253
*1074 FILLER_10_26
*1075 FILLER_10_265
*1076 FILLER_10_278
*1077 FILLER_10_29
*1078 FILLER_10_294
*1079 FILLER_10_298
*1080 FILLER_10_3
*1081 FILLER_10_45
*1082 FILLER_10_72
*1083 FILLER_10_76
*1084 FILLER_10_82
*1085 FILLER_10_85
*1086 FILLER_10_9
*1087 FILLER_11_109
*1088 FILLER_11_113
*1089 FILLER_11_12
*1090 FILLER_11_124
*1091 FILLER_11_136
*1092 FILLER_11_150
*1093 FILLER_11_166
*1094 FILLER_11_169
*1095 FILLER_11_184
*1096 FILLER_11_194
*1097 FILLER_11_202
*1098 FILLER_11_216
*1099 FILLER_11_225
*1100 FILLER_11_233
*1101 FILLER_11_241
*1102 FILLER_11_255
*1103 FILLER_11_271
*1104 FILLER_11_279
*1105 FILLER_11_281
*1106 FILLER_11_289
*1107 FILLER_11_297
*1108 FILLER_11_3
*1109 FILLER_11_36
*1110 FILLER_11_44
*1111 FILLER_11_54
*1112 FILLER_11_57
*1113 FILLER_11_79
*1114 FILLER_11_99
*1115 FILLER_12_112
*1116 FILLER_12_127
*1117 FILLER_12_138
*1118 FILLER_12_141
*1119 FILLER_12_150
*1120 FILLER_12_154
*1121 FILLER_12_162
*1122 FILLER_12_178
*1123 FILLER_12_188
*1124 FILLER_12_197
*1125 FILLER_12_203
*1126 FILLER_12_207
*1127 FILLER_12_218
*1128 FILLER_12_230
*1129 FILLER_12_241
*1130 FILLER_12_245
*1131 FILLER_12_250
*1132 FILLER_12_253
*1133 FILLER_12_26
*1134 FILLER_12_263
*1135 FILLER_12_272
*1136 FILLER_12_284
*1137 FILLER_12_29
*1138 FILLER_12_295
*1139 FILLER_12_3
*1140 FILLER_12_37
*1141 FILLER_12_42
*1142 FILLER_12_46
*1143 FILLER_12_71
*1144 FILLER_12_82
*1145 FILLER_12_85
*1146 FILLER_12_9
*1147 FILLER_12_99
*1148 FILLER_13_110
*1149 FILLER_13_113
*1150 FILLER_13_120
*1151 FILLER_13_136
*1152 FILLER_13_144
*1153 FILLER_13_160
*1154 FILLER_13_169
*1155 FILLER_13_177
*1156 FILLER_13_195
*1157 FILLER_13_211
*1158 FILLER_13_221
*1159 FILLER_13_225
*1160 FILLER_13_239
*1161 FILLER_13_24
*1162 FILLER_13_243
*1163 FILLER_13_256
*1164 FILLER_13_260
*1165 FILLER_13_273
*1166 FILLER_13_279
*1167 FILLER_13_281
*1168 FILLER_13_291
*1169 FILLER_13_3
*1170 FILLER_13_33
*1171 FILLER_13_54
*1172 FILLER_13_57
*1173 FILLER_13_79
*1174 FILLER_13_99
*1175 FILLER_14_108
*1176 FILLER_14_116
*1177 FILLER_14_124
*1178 FILLER_14_130
*1179 FILLER_14_137
*1180 FILLER_14_141
*1181 FILLER_14_152
*1182 FILLER_14_167
*1183 FILLER_14_183
*1184 FILLER_14_193
*1185 FILLER_14_197
*1186 FILLER_14_217
*1187 FILLER_14_22
*1188 FILLER_14_233
*1189 FILLER_14_243
*1190 FILLER_14_250
*1191 FILLER_14_253
*1192 FILLER_14_26
*1193 FILLER_14_267
*1194 FILLER_14_279
*1195 FILLER_14_285
*1196 FILLER_14_29
*1197 FILLER_14_293
*1198 FILLER_14_3
*1199 FILLER_14_35
*1200 FILLER_14_44
*1201 FILLER_14_68
*1202 FILLER_14_82
*1203 FILLER_14_85
*1204 FILLER_14_96
*1205 FILLER_15_104
*1206 FILLER_15_113
*1207 FILLER_15_12
*1208 FILLER_15_128
*1209 FILLER_15_146
*1210 FILLER_15_16
*1211 FILLER_15_161
*1212 FILLER_15_167
*1213 FILLER_15_169
*1214 FILLER_15_178
*1215 FILLER_15_186
*1216 FILLER_15_199
*1217 FILLER_15_215
*1218 FILLER_15_222
*1219 FILLER_15_225
*1220 FILLER_15_234
*1221 FILLER_15_249
*1222 FILLER_15_259
*1223 FILLER_15_272
*1224 FILLER_15_281
*1225 FILLER_15_295
*1226 FILLER_15_3
*1227 FILLER_15_34
*1228 FILLER_15_54
*1229 FILLER_15_57
*1230 FILLER_15_75
*1231 FILLER_15_95
*1232 FILLER_16_102
*1233 FILLER_16_108
*1234 FILLER_16_120
*1235 FILLER_16_124
*1236 FILLER_16_129
*1237 FILLER_16_138
*1238 FILLER_16_141
*1239 FILLER_16_145
*1240 FILLER_16_153
*1241 FILLER_16_169
*1242 FILLER_16_187
*1243 FILLER_16_194
*1244 FILLER_16_197
*1245 FILLER_16_205
*1246 FILLER_16_212
*1247 FILLER_16_228
*1248 FILLER_16_24
*1249 FILLER_16_240
*1250 FILLER_16_250
*1251 FILLER_16_253
*1252 FILLER_16_268
*1253 FILLER_16_284
*1254 FILLER_16_29
*1255 FILLER_16_296
*1256 FILLER_16_3
*1257 FILLER_16_36
*1258 FILLER_16_44
*1259 FILLER_16_7
*1260 FILLER_16_71
*1261 FILLER_16_82
*1262 FILLER_16_85
*1263 FILLER_16_96
*1264 FILLER_17_109
*1265 FILLER_17_113
*1266 FILLER_17_120
*1267 FILLER_17_130
*1268 FILLER_17_145
*1269 FILLER_17_153
*1270 FILLER_17_164
*1271 FILLER_17_169
*1272 FILLER_17_189
*1273 FILLER_17_205
*1274 FILLER_17_21
*1275 FILLER_17_221
*1276 FILLER_17_225
*1277 FILLER_17_231
*1278 FILLER_17_244
*1279 FILLER_17_260
*1280 FILLER_17_276
*1281 FILLER_17_281
*1282 FILLER_17_295
*1283 FILLER_17_3
*1284 FILLER_17_30
*1285 FILLER_17_54
*1286 FILLER_17_57
*1287 FILLER_17_79
*1288 FILLER_17_86
*1289 FILLER_17_96
*1290 FILLER_18_108
*1291 FILLER_18_116
*1292 FILLER_18_133
*1293 FILLER_18_139
*1294 FILLER_18_141
*1295 FILLER_18_159
*1296 FILLER_18_169
*1297 FILLER_18_185
*1298 FILLER_18_193
*1299 FILLER_18_197
*1300 FILLER_18_201
*1301 FILLER_18_209
*1302 FILLER_18_219
*1303 FILLER_18_22
*1304 FILLER_18_230
*1305 FILLER_18_239
*1306 FILLER_18_243
*1307 FILLER_18_250
*1308 FILLER_18_253
*1309 FILLER_18_262
*1310 FILLER_18_286
*1311 FILLER_18_29
*1312 FILLER_18_298
*1313 FILLER_18_3
*1314 FILLER_18_35
*1315 FILLER_18_41
*1316 FILLER_18_70
*1317 FILLER_18_82
*1318 FILLER_18_85
*1319 FILLER_18_91
*1320 FILLER_18_96
*1321 FILLER_19_108
*1322 FILLER_19_113
*1323 FILLER_19_124
*1324 FILLER_19_132
*1325 FILLER_19_146
*1326 FILLER_19_150
*1327 FILLER_19_155
*1328 FILLER_19_159
*1329 FILLER_19_166
*1330 FILLER_19_169
*1331 FILLER_19_178
*1332 FILLER_19_186
*1333 FILLER_19_190
*1334 FILLER_19_203
*1335 FILLER_19_210
*1336 FILLER_19_217
*1337 FILLER_19_223
*1338 FILLER_19_225
*1339 FILLER_19_239
*1340 FILLER_19_255
*1341 FILLER_19_273
*1342 FILLER_19_279
*1343 FILLER_19_281
*1344 FILLER_19_293
*1345 FILLER_19_3
*1346 FILLER_19_30
*1347 FILLER_19_54
*1348 FILLER_19_57
*1349 FILLER_19_82
*1350 FILLER_19_88
*1351 FILLER_19_9
*1352 FILLER_19_97
*1353 FILLER_1_110
*1354 FILLER_1_113
*1355 FILLER_1_12
*1356 FILLER_1_131
*1357 FILLER_1_147
*1358 FILLER_1_153
*1359 FILLER_1_166
*1360 FILLER_1_169
*1361 FILLER_1_185
*1362 FILLER_1_189
*1363 FILLER_1_202
*1364 FILLER_1_218
*1365 FILLER_1_225
*1366 FILLER_1_233
*1367 FILLER_1_243
*1368 FILLER_1_251
*1369 FILLER_1_259
*1370 FILLER_1_271
*1371 FILLER_1_279
*1372 FILLER_1_281
*1373 FILLER_1_293
*1374 FILLER_1_3
*1375 FILLER_1_33
*1376 FILLER_1_54
*1377 FILLER_1_57
*1378 FILLER_1_76
*1379 FILLER_1_96
*1380 FILLER_20_110
*1381 FILLER_20_117
*1382 FILLER_20_125
*1383 FILLER_20_136
*1384 FILLER_20_141
*1385 FILLER_20_146
*1386 FILLER_20_150
*1387 FILLER_20_154
*1388 FILLER_20_167
*1389 FILLER_20_178
*1390 FILLER_20_194
*1391 FILLER_20_197
*1392 FILLER_20_203
*1393 FILLER_20_21
*1394 FILLER_20_216
*1395 FILLER_20_236
*1396 FILLER_20_247
*1397 FILLER_20_251
*1398 FILLER_20_253
*1399 FILLER_20_262
*1400 FILLER_20_266
*1401 FILLER_20_27
*1402 FILLER_20_279
*1403 FILLER_20_283
*1404 FILLER_20_29
*1405 FILLER_20_291
*1406 FILLER_20_3
*1407 FILLER_20_37
*1408 FILLER_20_45
*1409 FILLER_20_70
*1410 FILLER_20_82
*1411 FILLER_20_85
*1412 FILLER_20_98
*1413 FILLER_21_105
*1414 FILLER_21_111
*1415 FILLER_21_113
*1416 FILLER_21_119
*1417 FILLER_21_132
*1418 FILLER_21_146
*1419 FILLER_21_154
*1420 FILLER_21_158
*1421 FILLER_21_166
*1422 FILLER_21_169
*1423 FILLER_21_183
*1424 FILLER_21_199
*1425 FILLER_21_205
*1426 FILLER_21_218
*1427 FILLER_21_225
*1428 FILLER_21_239
*1429 FILLER_21_255
*1430 FILLER_21_271
*1431 FILLER_21_279
*1432 FILLER_21_281
*1433 FILLER_21_295
*1434 FILLER_21_3
*1435 FILLER_21_30
*1436 FILLER_21_54
*1437 FILLER_21_57
*1438 FILLER_21_79
*1439 FILLER_21_9
*1440 FILLER_21_90
*1441 FILLER_21_97
*1442 FILLER_22_108
*1443 FILLER_22_120
*1444 FILLER_22_128
*1445 FILLER_22_136
*1446 FILLER_22_141
*1447 FILLER_22_148
*1448 FILLER_22_155
*1449 FILLER_22_159
*1450 FILLER_22_164
*1451 FILLER_22_175
*1452 FILLER_22_192
*1453 FILLER_22_197
*1454 FILLER_22_202
*1455 FILLER_22_206
*1456 FILLER_22_215
*1457 FILLER_22_227
*1458 FILLER_22_235
*1459 FILLER_22_250
*1460 FILLER_22_253
*1461 FILLER_22_26
*1462 FILLER_22_261
*1463 FILLER_22_276
*1464 FILLER_22_29
*1465 FILLER_22_295
*1466 FILLER_22_3
*1467 FILLER_22_35
*1468 FILLER_22_43
*1469 FILLER_22_70
*1470 FILLER_22_78
*1471 FILLER_22_82
*1472 FILLER_22_85
*1473 FILLER_22_96
*1474 FILLER_23_100
*1475 FILLER_23_109
*1476 FILLER_23_113
*1477 FILLER_23_117
*1478 FILLER_23_125
*1479 FILLER_23_136
*1480 FILLER_23_143
*1481 FILLER_23_156
*1482 FILLER_23_164
*1483 FILLER_23_169
*1484 FILLER_23_17
*1485 FILLER_23_183
*1486 FILLER_23_199
*1487 FILLER_23_217
*1488 FILLER_23_223
*1489 FILLER_23_225
*1490 FILLER_23_239
*1491 FILLER_23_247
*1492 FILLER_23_265
*1493 FILLER_23_276
*1494 FILLER_23_281
*1495 FILLER_23_290
*1496 FILLER_23_298
*1497 FILLER_23_3
*1498 FILLER_23_43
*1499 FILLER_23_51
*1500 FILLER_23_55
*1501 FILLER_23_57
*1502 FILLER_23_63
*1503 FILLER_23_71
*1504 FILLER_23_76
*1505 FILLER_23_87
*1506 FILLER_23_9
*1507 FILLER_24_100
*1508 FILLER_24_112
*1509 FILLER_24_118
*1510 FILLER_24_124
*1511 FILLER_24_130
*1512 FILLER_24_138
*1513 FILLER_24_141
*1514 FILLER_24_150
*1515 FILLER_24_161
*1516 FILLER_24_168
*1517 FILLER_24_184
*1518 FILLER_24_191
*1519 FILLER_24_195
*1520 FILLER_24_197
*1521 FILLER_24_208
*1522 FILLER_24_21
*1523 FILLER_24_212
*1524 FILLER_24_217
*1525 FILLER_24_233
*1526 FILLER_24_249
*1527 FILLER_24_253
*1528 FILLER_24_267
*1529 FILLER_24_27
*1530 FILLER_24_279
*1531 FILLER_24_29
*1532 FILLER_24_292
*1533 FILLER_24_298
*1534 FILLER_24_3
*1535 FILLER_24_37
*1536 FILLER_24_45
*1537 FILLER_24_67
*1538 FILLER_24_75
*1539 FILLER_24_82
*1540 FILLER_24_85
*1541 FILLER_25_110
*1542 FILLER_25_113
*1543 FILLER_25_119
*1544 FILLER_25_134
*1545 FILLER_25_14
*1546 FILLER_25_149
*1547 FILLER_25_160
*1548 FILLER_25_169
*1549 FILLER_25_183
*1550 FILLER_25_195
*1551 FILLER_25_208
*1552 FILLER_25_220
*1553 FILLER_25_225
*1554 FILLER_25_231
*1555 FILLER_25_239
*1556 FILLER_25_251
*1557 FILLER_25_255
*1558 FILLER_25_266
*1559 FILLER_25_277
*1560 FILLER_25_281
*1561 FILLER_25_290
*1562 FILLER_25_298
*1563 FILLER_25_3
*1564 FILLER_25_36
*1565 FILLER_25_45
*1566 FILLER_25_54
*1567 FILLER_25_57
*1568 FILLER_25_69
*1569 FILLER_25_81
*1570 FILLER_25_89
*1571 FILLER_25_98
*1572 FILLER_26_103
*1573 FILLER_26_116
*1574 FILLER_26_12
*1575 FILLER_26_128
*1576 FILLER_26_138
*1577 FILLER_26_141
*1578 FILLER_26_149
*1579 FILLER_26_157
*1580 FILLER_26_16
*1581 FILLER_26_172
*1582 FILLER_26_180
*1583 FILLER_26_194
*1584 FILLER_26_197
*1585 FILLER_26_203
*1586 FILLER_26_207
*1587 FILLER_26_220
*1588 FILLER_26_228
*1589 FILLER_26_237
*1590 FILLER_26_249
*1591 FILLER_26_253
*1592 FILLER_26_26
*1593 FILLER_26_267
*1594 FILLER_26_276
*1595 FILLER_26_29
*1596 FILLER_26_292
*1597 FILLER_26_298
*1598 FILLER_26_3
*1599 FILLER_26_42
*1600 FILLER_26_53
*1601 FILLER_26_63
*1602 FILLER_26_7
*1603 FILLER_26_70
*1604 FILLER_26_82
*1605 FILLER_26_85
*1606 FILLER_26_91
*1607 FILLER_27_106
*1608 FILLER_27_113
*1609 FILLER_27_126
*1610 FILLER_27_137
*1611 FILLER_27_146
*1612 FILLER_27_154
*1613 FILLER_27_161
*1614 FILLER_27_167
*1615 FILLER_27_169
*1616 FILLER_27_175
*1617 FILLER_27_18
*1618 FILLER_27_183
*1619 FILLER_27_199
*1620 FILLER_27_207
*1621 FILLER_27_22