*SPEF "ieee 1481-1999"
*DESIGN "tinysat"
*DATE "11:11:11 Fri 11 11, 1111"
*VENDOR "OpenRCX"
*PROGRAM "Parallel Extraction"
*VERSION "1.0"
*DESIGN_FLOW "NAME_SCOPE LOCAL" "PIN_CAP NONE"
*DIVIDER /
*DELIMITER :
*BUS_DELIMITER []
*T_UNIT 1 NS
*C_UNIT 1 PF
*R_UNIT 1 OHM
*L_UNIT 1 HENRY

*NAME_MAP
*1 io_in[0]
*2 io_in[1]
*3 io_in[2]
*4 io_in[3]
*5 io_in[4]
*6 io_in[5]
*7 io_in[6]
*8 io_in[7]
*9 io_out[0]
*10 io_out[1]
*11 io_out[2]
*12 io_out[3]
*13 io_out[4]
*14 io_out[5]
*15 net8
*16 net9
*19 _0000_
*20 _0001_
*21 _0002_
*22 _0003_
*23 _0004_
*24 _0005_
*25 _0006_
*26 _0007_
*27 _0008_
*28 _0009_
*29 _0010_
*30 _0011_
*31 _0012_
*32 _0013_
*33 _0014_
*34 _0015_
*35 _0016_
*36 _0017_
*37 _0018_
*38 _0019_
*39 _0020_
*40 _0021_
*41 _0022_
*42 _0023_
*43 _0024_
*44 _0025_
*45 _0026_
*46 _0027_
*47 _0028_
*48 _0029_
*49 _0030_
*50 _0031_
*51 _0032_
*52 _0033_
*53 _0034_
*54 _0035_
*55 _0036_
*56 _0037_
*57 _0038_
*58 _0039_
*59 _0040_
*60 _0041_
*61 _0042_
*62 _0043_
*63 _0044_
*64 _0045_
*65 _0046_
*66 _0047_
*67 _0048_
*68 _0049_
*69 _0050_
*70 _0051_
*71 _0052_
*72 _0053_
*73 _0054_
*74 _0055_
*75 _0056_
*76 _0057_
*77 _0058_
*78 _0059_
*79 _0060_
*80 _0061_
*81 _0062_
*82 _0063_
*83 _0064_
*84 _0065_
*85 _0066_
*86 _0067_
*87 _0068_
*88 _0069_
*89 _0070_
*90 _0071_
*91 _0072_
*92 _0073_
*93 _0074_
*94 _0075_
*95 _0076_
*96 _0077_
*97 _0078_
*98 _0079_
*99 _0080_
*100 _0081_
*101 _0082_
*102 _0083_
*103 _0084_
*104 _0085_
*105 _0086_
*106 _0087_
*107 _0088_
*108 _0089_
*109 _0090_
*110 _0091_
*111 _0092_
*112 _0093_
*113 _0094_
*114 _0095_
*115 _0096_
*116 _0097_
*117 _0098_
*118 _0099_
*119 _0100_
*120 _0101_
*121 _0102_
*122 _0103_
*123 _0104_
*124 _0105_
*125 _0106_
*126 _0107_
*127 _0108_
*128 _0109_
*129 _0110_
*130 _0111_
*131 _0112_
*132 _0113_
*133 _0114_
*134 _0115_
*135 _0116_
*136 _0117_
*137 _0118_
*138 _0119_
*139 _0120_
*140 _0121_
*141 _0122_
*142 _0123_
*143 _0124_
*144 _0125_
*145 _0126_
*146 _0127_
*147 _0128_
*148 _0129_
*149 _0130_
*150 _0131_
*151 _0132_
*152 _0133_
*153 _0134_
*154 _0135_
*155 _0136_
*156 _0137_
*157 _0138_
*158 _0139_
*159 _0140_
*160 _0141_
*161 _0142_
*162 _0143_
*163 _0144_
*164 _0145_
*165 _0146_
*166 _0147_
*167 _0148_
*168 _0149_
*169 _0150_
*170 _0151_
*171 _0152_
*172 _0153_
*173 _0154_
*174 _0155_
*175 _0156_
*176 _0157_
*177 _0158_
*178 _0159_
*179 _0160_
*180 _0161_
*181 _0162_
*182 _0163_
*183 _0164_
*184 _0165_
*185 _0166_
*186 _0167_
*187 _0168_
*188 _0169_
*189 _0170_
*190 _0171_
*191 _0172_
*192 _0173_
*193 _0174_
*194 _0175_
*195 _0176_
*196 _0177_
*197 _0178_
*198 _0179_
*199 _0180_
*200 _0181_
*201 _0182_
*202 _0183_
*203 _0184_
*204 _0185_
*205 _0186_
*206 _0187_
*207 _0188_
*208 _0189_
*209 _0190_
*210 _0191_
*211 _0192_
*212 _0193_
*213 _0194_
*214 _0195_
*215 _0196_
*216 _0197_
*217 _0198_
*218 _0199_
*219 _0200_
*220 _0201_
*221 _0202_
*222 _0203_
*223 _0204_
*224 _0205_
*225 _0206_
*226 _0207_
*227 _0208_
*228 _0209_
*229 _0210_
*230 _0211_
*231 _0212_
*232 _0213_
*233 _0214_
*234 _0215_
*235 _0216_
*236 _0217_
*237 _0218_
*238 _0219_
*239 _0220_
*240 _0221_
*241 _0222_
*242 _0223_
*243 _0224_
*244 _0225_
*245 _0226_
*246 _0227_
*247 _0228_
*248 _0229_
*249 _0230_
*250 _0231_
*251 _0232_
*252 _0233_
*253 _0234_
*254 _0235_
*255 _0236_
*256 _0237_
*257 _0238_
*258 _0239_
*259 _0240_
*260 _0241_
*261 _0242_
*262 _0243_
*263 _0244_
*264 _0245_
*265 _0246_
*266 _0247_
*267 _0248_
*268 _0249_
*269 _0250_
*270 _0251_
*271 _0252_
*272 _0253_
*273 _0254_
*274 _0255_
*275 _0256_
*276 _0257_
*277 _0258_
*278 _0259_
*279 _0260_
*280 _0261_
*281 _0262_
*282 _0263_
*283 _0264_
*284 _0265_
*285 _0266_
*286 _0267_
*287 _0268_
*288 _0269_
*289 _0270_
*290 _0271_
*291 _0272_
*292 _0273_
*293 _0274_
*294 _0275_
*295 _0276_
*296 _0277_
*297 _0278_
*298 _0279_
*299 _0280_
*300 _0281_
*301 _0282_
*302 _0283_
*303 _0284_
*304 _0285_
*305 _0286_
*306 _0287_
*307 _0288_
*308 _0289_
*309 _0290_
*310 _0291_
*311 _0292_
*312 _0293_
*313 _0294_
*314 _0295_
*315 _0296_
*316 _0297_
*317 _0298_
*318 _0299_
*319 _0300_
*320 _0301_
*321 _0302_
*322 _0303_
*323 _0304_
*324 _0305_
*325 _0306_
*326 _0307_
*327 _0308_
*328 _0309_
*329 _0310_
*330 _0311_
*331 _0312_
*332 _0313_
*333 _0314_
*334 _0315_
*335 _0316_
*336 _0317_
*337 _0318_
*338 _0319_
*339 _0320_
*340 _0321_
*341 _0322_
*342 _0323_
*343 _0324_
*344 _0325_
*345 _0326_
*346 _0327_
*347 _0328_
*348 _0329_
*349 _0330_
*350 _0331_
*351 _0332_
*352 _0333_
*353 _0334_
*354 _0335_
*355 _0336_
*356 _0337_
*357 _0338_
*358 _0339_
*359 _0340_
*360 _0341_
*361 _0342_
*362 _0343_
*363 _0344_
*364 _0345_
*365 _0346_
*366 _0347_
*367 _0348_
*368 _0349_
*369 _0350_
*370 _0351_
*371 _0352_
*372 _0353_
*373 _0354_
*374 _0355_
*375 _0356_
*376 _0357_
*377 _0358_
*378 _0359_
*379 _0360_
*380 _0361_
*381 _0362_
*382 _0363_
*383 _0364_
*384 _0365_
*385 _0366_
*386 _0367_
*387 _0368_
*388 _0369_
*389 _0370_
*390 _0371_
*391 _0372_
*392 _0373_
*393 _0374_
*394 _0375_
*395 _0376_
*396 _0377_
*397 _0378_
*398 _0379_
*399 _0380_
*400 _0381_
*401 _0382_
*402 _0383_
*403 _0384_
*404 _0385_
*405 _0386_
*406 _0387_
*407 _0388_
*408 _0389_
*409 _0390_
*410 _0391_
*411 _0392_
*412 _0393_
*413 _0394_
*414 _0395_
*415 _0396_
*416 _0397_
*417 _0398_
*418 _0399_
*419 _0400_
*420 _0401_
*421 _0402_
*422 _0403_
*423 _0404_
*424 _0405_
*425 _0406_
*426 _0407_
*427 _0408_
*428 _0409_
*429 _0410_
*430 _0411_
*431 _0412_
*432 _0413_
*433 _0414_
*434 _0415_
*435 _0416_
*436 _0417_
*437 _0418_
*438 _0419_
*439 _0420_
*440 _0421_
*441 _0422_
*442 _0423_
*443 _0424_
*444 _0425_
*445 _0426_
*446 _0427_
*447 _0428_
*448 _0429_
*449 _0430_
*450 _0431_
*451 _0432_
*452 _0433_
*453 _0434_
*454 _0435_
*455 _0436_
*456 _0437_
*457 _0438_
*458 _0439_
*459 _0440_
*460 _0441_
*461 _0442_
*462 _0443_
*463 _0444_
*464 _0445_
*465 _0446_
*466 _0447_
*467 _0448_
*468 _0449_
*469 _0450_
*470 _0451_
*471 _0452_
*472 _0453_
*473 _0454_
*474 _0455_
*475 _0456_
*476 _0457_
*477 _0458_
*478 _0459_
*479 _0460_
*480 _0461_
*481 _0462_
*482 _0463_
*483 _0464_
*484 _0465_
*485 _0466_
*486 _0467_
*487 _0468_
*488 _0469_
*489 _0470_
*490 _0471_
*491 _0472_
*492 _0473_
*493 _0474_
*494 _0475_
*495 _0476_
*496 _0477_
*497 _0478_
*498 _0479_
*499 _0480_
*500 _0481_
*501 _0482_
*502 _0483_
*503 _0484_
*504 _0485_
*505 _0486_
*506 _0487_
*507 _0488_
*508 _0489_
*509 _0490_
*510 _0491_
*511 _0492_
*512 _0493_
*513 _0494_
*514 _0495_
*515 _0496_
*516 _0497_
*517 _0498_
*518 _0499_
*519 _0500_
*520 _0501_
*521 _0502_
*522 _0503_
*523 _0504_
*524 _0505_
*525 _0506_
*526 _0507_
*527 _0508_
*528 _0509_
*529 _0510_
*530 _0511_
*531 _0512_
*532 _0513_
*533 _0514_
*534 _0515_
*535 _0516_
*536 _0517_
*537 _0518_
*538 _0519_
*539 _0520_
*540 _0521_
*541 _0522_
*542 _0523_
*543 _0524_
*544 _0525_
*545 _0526_
*546 _0527_
*547 _0528_
*548 _0529_
*549 _0530_
*550 _0531_
*551 _0532_
*552 _0533_
*553 _0534_
*554 _0535_
*555 _0536_
*556 _0537_
*557 _0538_
*558 _0539_
*559 _0540_
*560 _0541_
*561 _0542_
*562 _0543_
*563 _0544_
*564 _0545_
*565 _0546_
*566 _0547_
*567 bits\[0\]
*568 bits\[1\]
*569 bits\[2\]
*570 bits\[3\]
*571 clknet_0_io_in[0]
*572 clknet_4_0_0_io_in[0]
*573 clknet_4_10_0_io_in[0]
*574 clknet_4_11_0_io_in[0]
*575 clknet_4_12_0_io_in[0]
*576 clknet_4_13_0_io_in[0]
*577 clknet_4_14_0_io_in[0]
*578 clknet_4_15_0_io_in[0]
*579 clknet_4_1_0_io_in[0]
*580 clknet_4_2_0_io_in[0]
*581 clknet_4_3_0_io_in[0]
*582 clknet_4_4_0_io_in[0]
*583 clknet_4_5_0_io_in[0]
*584 clknet_4_6_0_io_in[0]
*585 clknet_4_7_0_io_in[0]
*586 clknet_4_8_0_io_in[0]
*587 clknet_4_9_0_io_in[0]
*588 done
*589 idx2\[0\]
*590 idx2\[1\]
*591 loadreg\[0\]
*592 loadreg\[1\]
*593 loadreg\[2\]
*594 loadreg\[3\]
*595 mymux1\.x\[0\]
*596 mymux1\.x\[1\]
*597 mymux1\.x\[2\]
*598 mymux1\.x\[3\]
*599 net1
*600 net2
*601 net3
*602 net4
*603 net5
*604 net6
*605 net7
*606 ram1\.mem\[0\]\[0\]
*607 ram1\.mem\[0\]\[1\]
*608 ram1\.mem\[0\]\[2\]
*609 ram1\.mem\[0\]\[3\]
*610 ram1\.mem\[10\]\[0\]
*611 ram1\.mem\[10\]\[1\]
*612 ram1\.mem\[10\]\[2\]
*613 ram1\.mem\[10\]\[3\]
*614 ram1\.mem\[11\]\[0\]
*615 ram1\.mem\[11\]\[1\]
*616 ram1\.mem\[11\]\[2\]
*617 ram1\.mem\[11\]\[3\]
*618 ram1\.mem\[12\]\[0\]
*619 ram1\.mem\[12\]\[1\]
*620 ram1\.mem\[12\]\[2\]
*621 ram1\.mem\[12\]\[3\]
*622 ram1\.mem\[13\]\[0\]
*623 ram1\.mem\[13\]\[1\]
*624 ram1\.mem\[13\]\[2\]
*625 ram1\.mem\[13\]\[3\]
*626 ram1\.mem\[14\]\[0\]
*627 ram1\.mem\[14\]\[1\]
*628 ram1\.mem\[14\]\[2\]
*629 ram1\.mem\[14\]\[3\]
*630 ram1\.mem\[15\]\[0\]
*631 ram1\.mem\[15\]\[1\]
*632 ram1\.mem\[15\]\[2\]
*633 ram1\.mem\[15\]\[3\]
*634 ram1\.mem\[1\]\[0\]
*635 ram1\.mem\[1\]\[1\]
*636 ram1\.mem\[1\]\[2\]
*637 ram1\.mem\[1\]\[3\]
*638 ram1\.mem\[2\]\[0\]
*639 ram1\.mem\[2\]\[1\]
*640 ram1\.mem\[2\]\[2\]
*641 ram1\.mem\[2\]\[3\]
*642 ram1\.mem\[3\]\[0\]
*643 ram1\.mem\[3\]\[1\]
*644 ram1\.mem\[3\]\[2\]
*645 ram1\.mem\[3\]\[3\]
*646 ram1\.mem\[4\]\[0\]
*647 ram1\.mem\[4\]\[1\]
*648 ram1\.mem\[4\]\[2\]
*649 ram1\.mem\[4\]\[3\]
*650 ram1\.mem\[5\]\[0\]
*651 ram1\.mem\[5\]\[1\]
*652 ram1\.mem\[5\]\[2\]
*653 ram1\.mem\[5\]\[3\]
*654 ram1\.mem\[6\]\[0\]
*655 ram1\.mem\[6\]\[1\]
*656 ram1\.mem\[6\]\[2\]
*657 ram1\.mem\[6\]\[3\]
*658 ram1\.mem\[7\]\[0\]
*659 ram1\.mem\[7\]\[1\]
*660 ram1\.mem\[7\]\[2\]
*661 ram1\.mem\[7\]\[3\]
*662 ram1\.mem\[8\]\[0\]
*663 ram1\.mem\[8\]\[1\]
*664 ram1\.mem\[8\]\[2\]
*665 ram1\.mem\[8\]\[3\]
*666 ram1\.mem\[9\]\[0\]
*667 ram1\.mem\[9\]\[1\]
*668 ram1\.mem\[9\]\[2\]
*669 ram1\.mem\[9\]\[3\]
*670 ram2\.mem\[0\]\[0\]
*671 ram2\.mem\[0\]\[1\]
*672 ram2\.mem\[0\]\[2\]
*673 ram2\.mem\[0\]\[3\]
*674 ram2\.mem\[10\]\[0\]
*675 ram2\.mem\[10\]\[1\]
*676 ram2\.mem\[10\]\[2\]
*677 ram2\.mem\[10\]\[3\]
*678 ram2\.mem\[11\]\[0\]
*679 ram2\.mem\[11\]\[1\]
*680 ram2\.mem\[11\]\[2\]
*681 ram2\.mem\[11\]\[3\]
*682 ram2\.mem\[12\]\[0\]
*683 ram2\.mem\[12\]\[1\]
*684 ram2\.mem\[12\]\[2\]
*685 ram2\.mem\[12\]\[3\]
*686 ram2\.mem\[13\]\[0\]
*687 ram2\.mem\[13\]\[1\]
*688 ram2\.mem\[13\]\[2\]
*689 ram2\.mem\[13\]\[3\]
*690 ram2\.mem\[14\]\[0\]
*691 ram2\.mem\[14\]\[1\]
*692 ram2\.mem\[14\]\[2\]
*693 ram2\.mem\[14\]\[3\]
*694 ram2\.mem\[15\]\[0\]
*695 ram2\.mem\[15\]\[1\]
*696 ram2\.mem\[15\]\[2\]
*697 ram2\.mem\[15\]\[3\]
*698 ram2\.mem\[1\]\[0\]
*699 ram2\.mem\[1\]\[1\]
*700 ram2\.mem\[1\]\[2\]
*701 ram2\.mem\[1\]\[3\]
*702 ram2\.mem\[2\]\[0\]
*703 ram2\.mem\[2\]\[1\]
*704 ram2\.mem\[2\]\[2\]
*705 ram2\.mem\[2\]\[3\]
*706 ram2\.mem\[3\]\[0\]
*707 ram2\.mem\[3\]\[1\]
*708 ram2\.mem\[3\]\[2\]
*709 ram2\.mem\[3\]\[3\]
*710 ram2\.mem\[4\]\[0\]
*711 ram2\.mem\[4\]\[1\]
*712 ram2\.mem\[4\]\[2\]
*713 ram2\.mem\[4\]\[3\]
*714 ram2\.mem\[5\]\[0\]
*715 ram2\.mem\[5\]\[1\]
*716 ram2\.mem\[5\]\[2\]
*717 ram2\.mem\[5\]\[3\]
*718 ram2\.mem\[6\]\[0\]
*719 ram2\.mem\[6\]\[1\]
*720 ram2\.mem\[6\]\[2\]
*721 ram2\.mem\[6\]\[3\]
*722 ram2\.mem\[7\]\[0\]
*723 ram2\.mem\[7\]\[1\]
*724 ram2\.mem\[7\]\[2\]
*725 ram2\.mem\[7\]\[3\]
*726 ram2\.mem\[8\]\[0\]
*727 ram2\.mem\[8\]\[1\]
*728 ram2\.mem\[8\]\[2\]
*729 ram2\.mem\[8\]\[3\]
*730 ram2\.mem\[9\]\[0\]
*731 ram2\.mem\[9\]\[1\]
*732 ram2\.mem\[9\]\[2\]
*733 ram2\.mem\[9\]\[3\]
*734 sol
*735 ANTENNA_1
*736 ANTENNA_10
*737 ANTENNA_11
*738 ANTENNA_12
*739 ANTENNA_13
*740 ANTENNA_14
*741 ANTENNA_15
*742 ANTENNA_16
*743 ANTENNA_17
*744 ANTENNA_18
*745 ANTENNA_19
*746 ANTENNA_2
*747 ANTENNA_20
*748 ANTENNA_21
*749 ANTENNA_22
*750 ANTENNA_23
*751 ANTENNA_24
*752 ANTENNA_25
*753 ANTENNA_26
*754 ANTENNA_27
*755 ANTENNA_28
*756 ANTENNA_29
*757 ANTENNA_3
*758 ANTENNA_30
*759 ANTENNA_31
*760 ANTENNA_32
*761 ANTENNA_33
*762 ANTENNA_34
*763 ANTENNA_35
*764 ANTENNA_36
*765 ANTENNA_4
*766 ANTENNA_5
*767 ANTENNA_6
*768 ANTENNA_7
*769 ANTENNA_8
*770 ANTENNA_9
*771 FILLER_0_110
*772 FILLER_0_113
*773 FILLER_0_132
*774 FILLER_0_136
*775 FILLER_0_141
*776 FILLER_0_159
*777 FILLER_0_166
*778 FILLER_0_169
*779 FILLER_0_174
*780 FILLER_0_186
*781 FILLER_0_194
*782 FILLER_0_197
*783 FILLER_0_209
*784 FILLER_0_221
*785 FILLER_0_225
*786 FILLER_0_237
*787 FILLER_0_249
*788 FILLER_0_253
*789 FILLER_0_26
*790 FILLER_0_265
*791 FILLER_0_277
*792 FILLER_0_281
*793 FILLER_0_29
*794 FILLER_0_293
*795 FILLER_0_3
*796 FILLER_0_33
*797 FILLER_0_36
*798 FILLER_0_54
*799 FILLER_0_57
*800 FILLER_0_61
*801 FILLER_0_64
*802 FILLER_0_8
*803 FILLER_0_82
*804 FILLER_0_85
*805 FILLER_0_93
*806 FILLER_10_100
*807 FILLER_10_118
*808 FILLER_10_138
*809 FILLER_10_141
*810 FILLER_10_153
*811 FILLER_10_165
*812 FILLER_10_173
*813 FILLER_10_181
*814 FILLER_10_191
*815 FILLER_10_195
*816 FILLER_10_197
*817 FILLER_10_208
*818 FILLER_10_216
*819 FILLER_10_22
*820 FILLER_10_226
*821 FILLER_10_239
*822 FILLER_10_246
*823 FILLER_10_253
*824 FILLER_10_265
*825 FILLER_10_277
*826 FILLER_10_289
*827 FILLER_10_29
*828 FILLER_10_297
*829 FILLER_10_3
*830 FILLER_10_37
*831 FILLER_10_56
*832 FILLER_10_76
*833 FILLER_10_96
*834 FILLER_11_110
*835 FILLER_11_113
*836 FILLER_11_127
*837 FILLER_11_147
*838 FILLER_11_159
*839 FILLER_11_167
*840 FILLER_11_169
*841 FILLER_11_178
*842 FILLER_11_185
*843 FILLER_11_198
*844 FILLER_11_205
*845 FILLER_11_209
*846 FILLER_11_213
*847 FILLER_11_220
*848 FILLER_11_225
*849 FILLER_11_236
*850 FILLER_11_243
*851 FILLER_11_250
*852 FILLER_11_262
*853 FILLER_11_274
*854 FILLER_11_28
*855 FILLER_11_281
*856 FILLER_11_293
*857 FILLER_11_3
*858 FILLER_11_48
*859 FILLER_11_57
*860 FILLER_11_70
*861 FILLER_11_90
*862 FILLER_12_103
*863 FILLER_12_107
*864 FILLER_12_125
*865 FILLER_12_137
*866 FILLER_12_141
*867 FILLER_12_159
*868 FILLER_12_171
*869 FILLER_12_183
*870 FILLER_12_194
*871 FILLER_12_197
*872 FILLER_12_21
*873 FILLER_12_210
*874 FILLER_12_223
*875 FILLER_12_236
*876 FILLER_12_243
*877 FILLER_12_250
*878 FILLER_12_253
*879 FILLER_12_265
*880 FILLER_12_27
*881 FILLER_12_277
*882 FILLER_12_289
*883 FILLER_12_29
*884 FILLER_12_297
*885 FILLER_12_3
*886 FILLER_12_47
*887 FILLER_12_59
*888 FILLER_12_63
*889 FILLER_12_80
*890 FILLER_12_85
*891 FILLER_13_110
*892 FILLER_13_113
*893 FILLER_13_125
*894 FILLER_13_147
*895 FILLER_13_159
*896 FILLER_13_166
*897 FILLER_13_169
*898 FILLER_13_179
*899 FILLER_13_190
*900 FILLER_13_211
*901 FILLER_13_220
*902 FILLER_13_225
*903 FILLER_13_23
*904 FILLER_13_237
*905 FILLER_13_247
*906 FILLER_13_255
*907 FILLER_13_265
*908 FILLER_13_277
*909 FILLER_13_281
*910 FILLER_13_293
*911 FILLER_13_3
*912 FILLER_13_31
*913 FILLER_13_35
*914 FILLER_13_53
*915 FILLER_13_57
*916 FILLER_13_69
*917 FILLER_13_87
*918 FILLER_13_93
*919 FILLER_14_101
*920 FILLER_14_118
*921 FILLER_14_138
*922 FILLER_14_141
*923 FILLER_14_153
*924 FILLER_14_164
*925 FILLER_14_173
*926 FILLER_14_188
*927 FILLER_14_197
*928 FILLER_14_208
*929 FILLER_14_221
*930 FILLER_14_234
*931 FILLER_14_24
*932 FILLER_14_240
*933 FILLER_14_250
*934 FILLER_14_253
*935 FILLER_14_264
*936 FILLER_14_277
*937 FILLER_14_289
*938 FILLER_14_29
*939 FILLER_14_297
*940 FILLER_14_3
*941 FILLER_14_48
*942 FILLER_14_68
*943 FILLER_14_7
*944 FILLER_14_80
*945 FILLER_14_85
*946 FILLER_14_97
*947 FILLER_15_105
*948 FILLER_15_111
*949 FILLER_15_113
*950 FILLER_15_125
*951 FILLER_15_148
*952 FILLER_15_160
*953 FILLER_15_166
*954 FILLER_15_169
*955 FILLER_15_177
*956 FILLER_15_189
*957 FILLER_15_197
*958 FILLER_15_203
*959 FILLER_15_21
*960 FILLER_15_211
*961 FILLER_15_222
*962 FILLER_15_225
*963 FILLER_15_242
*964 FILLER_15_255
*965 FILLER_15_267
*966 FILLER_15_278
*967 FILLER_15_281
*968 FILLER_15_293
*969 FILLER_15_3
*970 FILLER_15_45
*971 FILLER_15_53
*972 FILLER_15_57
*973 FILLER_15_81
*974 FILLER_16_109
*975 FILLER_16_117
*976 FILLER_16_120
*977 FILLER_16_138
*978 FILLER_16_141
*979 FILLER_16_153
*980 FILLER_16_165
*981 FILLER_16_177
*982 FILLER_16_183
*983 FILLER_16_187
*984 FILLER_16_194
*985 FILLER_16_197
*986 FILLER_16_208
*987 FILLER_16_215
*988 FILLER_16_228
*989 FILLER_16_234
*990 FILLER_16_242
*991 FILLER_16_249
*992 FILLER_16_253
*993 FILLER_16_26
*994 FILLER_16_264
*995 FILLER_16_271
*996 FILLER_16_278
*997 FILLER_16_29
*998 FILLER_16_290
*999 FILLER_16_298
*1000 FILLER_16_3
*1001 FILLER_16_47
*1002 FILLER_16_51
*1003 FILLER_16_69
*1004 FILLER_16_81
*1005 FILLER_16_85
*1006 FILLER_17_103
*1007 FILLER_17_111
*1008 FILLER_17_113
*1009 FILLER_17_125
*1010 FILLER_17_130
*1011 FILLER_17_148
*1012 FILLER_17_160
*1013 FILLER_17_169
*1014 FILLER_17_176
*1015 FILLER_17_186
*1016 FILLER_17_199
*1017 FILLER_17_21
*1018 FILLER_17_220
*1019 FILLER_17_225
*1020 FILLER_17_233
*1021 FILLER_17_243
*1022 FILLER_17_251
*1023 FILLER_17_263
*1024 FILLER_17_277
*1025 FILLER_17_281
*1026 FILLER_17_292
*1027 FILLER_17_298
*1028 FILLER_17_3
*1029 FILLER_17_39
*1030 FILLER_17_51
*1031 FILLER_17_55
*1032 FILLER_17_57
*1033 FILLER_17_65
*1034 FILLER_17_83
*1035 FILLER_17_9
*1036 FILLER_18_103
*1037 FILLER_18_115
*1038 FILLER_18_120
*1039 FILLER_18_138
*1040 FILLER_18_141
*1041 FILLER_18_153
*1042 FILLER_18_165
*1043 FILLER_18_177
*1044 FILLER_18_187
*1045 FILLER_18_195
*1046 FILLER_18_197
*1047 FILLER_18_209
*1048 FILLER_18_221
*1049 FILLER_18_231
*1050 FILLER_18_244
*1051 FILLER_18_253
*1052 FILLER_18_26
*1053 FILLER_18_267
*1054 FILLER_18_279
*1055 FILLER_18_29
*1056 FILLER_18_291
*1057 FILLER_18_3
*1058 FILLER_18_47
*1059 FILLER_18_51
*1060 FILLER_18_63
*1061 FILLER_18_75
*1062 FILLER_18_83
*1063 FILLER_18_85
*1064 FILLER_18_9
*1065 FILLER_19_110
*1066 FILLER_19_113
*1067 FILLER_19_128
*1068 FILLER_19_148
*1069 FILLER_19_160
*1070 FILLER_19_169
*1071 FILLER_19_177
*1072 FILLER_19_183
*1073 FILLER_19_194
*1074 FILLER_19_206
*1075 FILLER_19_21
*1076 FILLER_19_210
*1077 FILLER_19_220
*1078 FILLER_19_225
*1079 FILLER_19_229
*1080 FILLER_19_234
*1081 FILLER_19_245
*1082 FILLER_19_258
*1083 FILLER_19_272
*1084 FILLER_19_28
*1085 FILLER_19_281
*1086 FILLER_19_294
*1087 FILLER_19_298
*1088 FILLER_19_3
*1089 FILLER_19_32
*1090 FILLER_19_50
*1091 FILLER_19_57
*1092 FILLER_19_69
*1093 FILLER_19_75
*1094 FILLER_19_93
*1095 FILLER_1_110
*1096 FILLER_1_113
*1097 FILLER_1_125
*1098 FILLER_1_147
*1099 FILLER_1_155
*1100 FILLER_1_163
*1101 FILLER_1_167
*1102 FILLER_1_169
*1103 FILLER_1_178
*1104 FILLER_1_185
*1105 FILLER_1_197
*1106 FILLER_1_209
*1107 FILLER_1_221
*1108 FILLER_1_225
*1109 FILLER_1_237
*1110 FILLER_1_249
*1111 FILLER_1_261
*1112 FILLER_1_273
*1113 FILLER_1_279
*1114 FILLER_1_281
*1115 FILLER_1_293
*1116 FILLER_1_3
*1117 FILLER_1_32
*1118 FILLER_1_36
*1119 FILLER_1_54
*1120 FILLER_1_57
*1121 FILLER_1_69
*1122 FILLER_1_73
*1123 FILLER_1_90
*1124 FILLER_20_110
*1125 FILLER_20_130
*1126 FILLER_20_138
*1127 FILLER_20_141
*1128 FILLER_20_153
*1129 FILLER_20_165
*1130 FILLER_20_173
*1131 FILLER_20_178
*1132 FILLER_20_184
*1133 FILLER_20_194
*1134 FILLER_20_197
*1135 FILLER_20_209
*1136 FILLER_20_221
*1137 FILLER_20_229
*1138 FILLER_20_240
*1139 FILLER_20_253
*1140 FILLER_20_26
*1141 FILLER_20_261
*1142 FILLER_20_273
*1143 FILLER_20_285
*1144 FILLER_20_29
*1145 FILLER_20_297
*1146 FILLER_20_3
*1147 FILLER_20_42
*1148 FILLER_20_62
*1149 FILLER_20_82
*1150 FILLER_20_85
*1151 FILLER_20_9
*1152 FILLER_20_93
*1153 FILLER_21_110
*1154 FILLER_21_113
*1155 FILLER_21_125
*1156 FILLER_21_129
*1157 FILLER_21_146
*1158 FILLER_21_158
*1159 FILLER_21_166
*1160 FILLER_21_169
*1161 FILLER_21_179
*1162 FILLER_21_189
*1163 FILLER_21_201
*1164 FILLER_21_205
*1165 FILLER_21_21
*1166 FILLER_21_217
*1167 FILLER_21_223
*1168 FILLER_21_225
*1169 FILLER_21_230
*1170 FILLER_21_245
*1171 FILLER_21_249
*1172 FILLER_21_25
*1173 FILLER_21_256
*1174 FILLER_21_267
*1175 FILLER_21_279
*1176 FILLER_21_281
*1177 FILLER_21_292
*1178 FILLER_21_298
*1179 FILLER_21_3
*1180 FILLER_21_45
*1181 FILLER_21_53
*1182 FILLER_21_57
*1183 FILLER_21_69
*1184 FILLER_21_81
*1185 FILLER_21_93
*1186 FILLER_22_117
*1187 FILLER_22_121
*1188 FILLER_22_138
*1189 FILLER_22_141
*1190 FILLER_22_159
*1191 FILLER_22_172
*1192 FILLER_22_178
*1193 FILLER_22_185
*1194 FILLER_22_193
*1195 FILLER_22_197
*1196 FILLER_22_201
*1197 FILLER_22_212
*1198 FILLER_22_225
*1199 FILLER_22_229
*1200 FILLER_22_237
*1201 FILLER_22_245
*1202 FILLER_22_25
*1203 FILLER_22_251
*1204 FILLER_22_253
*1205 FILLER_22_261
*1206 FILLER_22_273
*1207 FILLER_22_285
*1208 FILLER_22_29
*1209 FILLER_22_297
*1210 FILLER_22_3
*1211 FILLER_22_35
*1212 FILLER_22_47
*1213 FILLER_22_53
*1214 FILLER_22_70
*1215 FILLER_22_82
*1216 FILLER_22_85
*1217 FILLER_22_97
*1218 FILLER_23_110
*1219 FILLER_23_113
*1220 FILLER_23_128
*1221 FILLER_23_148
*1222 FILLER_23_15
*1223 FILLER_23_160
*1224 FILLER_23_169
*1225 FILLER_23_175
*1226 FILLER_23_180
*1227 FILLER_23_195
*1228 FILLER_23_206
*1229 FILLER_23_214
*1230 FILLER_23_222
*1231 FILLER_23_225
*1232 FILLER_23_233
*1233 FILLER_23_240
*1234 FILLER_23_250
*1235 FILLER_23_258
*1236 FILLER_23_265
*1237 FILLER_23_277
*1238 FILLER_23_281
*1239 FILLER_23_293
*1240 FILLER_23_3
*1241 FILLER_23_43
*1242 FILLER_23_55
*1243 FILLER_23_57
*1244 FILLER_23_75
*1245 FILLER_23_87
*1246 FILLER_23_93
*1247 FILLER_24_103
*1248 FILLER_24_131
*1249 FILLER_24_139
*1250 FILLER_24_141
*1251 FILLER_24_153
*1252 FILLER_24_165
*1253 FILLER_24_169
*1254 FILLER_24_173
*1255 FILLER_24_183
*1256 FILLER_24_190
*1257 FILLER_24_197
*1258 FILLER_24_205
*1259 FILLER_24_209
*1260 FILLER_24_21
*1261 FILLER_24_220
*1262 FILLER_24_230
*1263 FILLER_24_237
*1264 FILLER_24_249
*1265 FILLER_24_253
*1266 FILLER_24_265
*1267 FILLER_24_27
*1268 FILLER_24_271
*1269 FILLER_24_279
*1270 FILLER_24_29
*1271 FILLER_24_292
*1272 FILLER_24_298
*1273 FILLER_24_3
*1274 FILLER_24_41
*1275 FILLER_24_61
*1276 FILLER_24_76
*1277 FILLER_24_85
*1278 FILLER_24_9
*1279 FILLER_25_104
*1280 FILLER_25_113
*1281 FILLER_25_125
*1282 FILLER_25_129
*1283 FILLER_25_146
*1284 FILLER_25_166
*1285 FILLER_25_169
*1286 FILLER_25_17
*1287 FILLER_25_181
*1288 FILLER_25_192
*1289 FILLER_25_200
*1290 FILLER_25_212
*1291 FILLER_25_225
*1292 FILLER_25_237
*1293 FILLER_25_248
*1294 FILLER_25_252
*1295 FILLER_25_263
*1296 FILLER_25_278
*1297 FILLER_25_281
*1298 FILLER_25_294
*1299 FILLER_25_298
*1300 FILLER_25_3
*1301 FILLER_25_34
*1302 FILLER_25_54
*1303 FILLER_25_57
*1304 FILLER_25_79
*1305 FILLER_25_9
*1306 FILLER_25_91
*1307 FILLER_26_111
*1308 FILLER_26_119
*1309 FILLER_26_138
*1310 FILLER_26_141
*1311 FILLER_26_153
*1312 FILLER_26_165
*1313 FILLER_26_169
*1314 FILLER_26_175
*1315 FILLER_26_187
*1316 FILLER_26_195
*1317 FILLER_26_197
*1318 FILLER_26_204
*1319 FILLER_26_21
*1320 FILLER_26_216
*1321 FILLER_26_231
*1322 FILLER_26_237
*1323 FILLER_26_242
*1324 FILLER_26_250
*1325 FILLER_26_253
*1326 FILLER_26_262
*1327 FILLER_26_266
*1328 FILLER_26_27
*1329 FILLER_26_270
*1330 FILLER_26_284
*1331 FILLER_26_29
*1332 FILLER_26_297
*1333 FILLER_26_3
*1334 FILLER_26_41
*1335 FILLER_26_61
*1336 FILLER_26_81
*1337 FILLER_26_85
*1338 FILLER_26_93
*1339 FILLER_27_110
*1340 FILLER_27_113
*1341 FILLER_27_125
*1342 FILLER_27_130
*1343 FILLER_27_148
*1344 FILLER_27_160
*1345 FILLER_27_169
*1346 FILLER_27_181
*1347 FILLER_27_193
*1348 FILLER_27_206
*1349 FILLER_27_21
*1350 FILLER_27_218
*1351 FILLER_27_225
*1352 FILLER_27_233
*1353 FILLER_27_241
*1354 FILLER_27_248
*1355 FILLER_27_260
*1356 FILLER_27_272
*1357 FILLER_27_278
*1358 FILLER_27_281
*1359 FILLER_27_296
*1360 FILLER_27_3
*1361 FILLER_27_33
*1362 FILLER_27_45
*1363 FILLER_27_53
*1364 FILLER_27_57
*1365 FILLER_27_69
*1366 FILLER_27_73
*1367 FILLER_27_90
*1368 FILLER_28_116
*1369 FILLER_28_120
*1370 FILLER_28_138
*1371 FILLER_28_141
*1372 FILLER_28_159
*1373 FILLER_28_171
*1374 FILLER_28_179
*1375 FILLER_28_187
*1376 FILLER_28_193
*1377 FILLER_28_197
*1378 FILLER_28_209
*1379 FILLER_28_22
*1380 FILLER_28_221
*1381 FILLER_28_232
*1382 FILLER_28_244
*1383 FILLER_28_253
*1384 FILLER_28_264
*1385 FILLER_28_276
*1386 FILLER_28_286
*1387 FILLER_28_29
*1388 FILLER_28_297
*1389 FILLER_28_3
*1390 FILLER_28_47
*1391 FILLER_28_59
*1392 FILLER_28_65
*1393 FILLER_28_82
*1394 FILLER_28_85
*1395 FILLER_28_97
*1396 FILLER_29_103
*1397 FILLER_29_111
*1398 FILLER_29_113
*1399 FILLER_29_125
*1400 FILLER_29_147
*1401 FILLER_29_15
*1402 FILLER_29_159
*1403 FILLER_29_167
*1404 FILLER_29_169
*1405 FILLER_29_184
*1406 FILLER_29_196
*1407 FILLER_29_205
*1408 FILLER_29_213
*1409 FILLER_29_222
*1410 FILLER_29_225
*1411 FILLER_29_233
*1412 FILLER_29_242
*1413 FILLER_29_254
*1414 FILLER_29_266
*1415 FILLER_29_27
*1416 FILLER_29_278
*1417 FILLER_29_281
*1418 FILLER_29_292
*1419 FILLER_29_298
*1420 FILLER_29_3
*1421 FILLER_29_39
*1422 FILLER_29_51
*1423 FILLER_29_55
*1424 FILLER_29_57
*1425 FILLER_29_75
*1426 FILLER_2_113
*1427 FILLER_2_117
*1428 FILLER_2_138
*1429 FILLER_2_141
*1430 FILLER_2_159
*1431 FILLER_2_179
*1432 FILLER_2_186
*1433 FILLER_2_194
*1434 FILLER_2_197
*1435 FILLER_2_202
*1436 FILLER_2_214
*1437 FILLER_2_226
*1438 FILLER_2_238
*1439 FILLER_2_250
*1440 FILLER_2_253
*1441 FILLER_2_26
*1442 FILLER_2_265
*1443 FILLER_2_277
*1444 FILLER_2_289
*1445 FILLER_2_29
*1446 FILLER_2_297
*1447 FILLER_2_3
*1448 FILLER_2_35
*1449 FILLER_2_53
*1450 FILLER_2_65
*1451 FILLER_2_82
*1452 FILLER_2_85
*1453 FILLER_2_9
*1454 FILLER_30_109
*1455 FILLER_30_121
*1456 FILLER_30_133
*1457 FILLER_30_139
*1458 FILLER_30_141
*1459 FILLER_30_153
*1460 FILLER_30_165
*1461 FILLER_30_177
*1462 FILLER_30_189
*1463 FILLER_30_195
*1464 FILLER_30_197
*1465 FILLER_30_20
*1466 FILLER_30_205
*1467 FILLER_30_213
*1468 FILLER_30_225
*1469 FILLER_30_235
*1470 FILLER_30_247
*1471 FILLER_30_251
*1472 FILLER_30_253
*1473 FILLER_30_265
*1474 FILLER_30_281
*1475 FILLER_30_29
*1476 FILLER_30_293
*1477 FILLER_30_3
*1478 FILLER_30_35
*1479 FILLER_30_42
*1480 FILLER_30_49
*1481 FILLER_30_57
*1482 FILLER_30_74
*1483 FILLER_30_8
*1484 FILLER_30_82
*1485 FILLER_30_85
*1486 FILLER_30_97
*1487 FILLER_31_109
*1488 FILLER_31_113
*1489 FILLER_31_125
*1490 FILLER_31_137
*1491 FILLER_31_149
*1492 FILLER_31_15
*1493 FILLER_31_164
*1494 FILLER_31_169
*1495 FILLER_31_175
*1496 FILLER_31_185
*1497 FILLER_31_201
*1498 FILLER_31_209
*1499 FILLER_31_217
*1500 FILLER_31_223
*1501 FILLER_31_225
*1502 FILLER_31_230
*1503 FILLER_31_234
*1504 FILLER_31_244
*1505 FILLER_31_259
*1506 FILLER_31_271
*1507 FILLER_31_279
*1508 FILLER_31_281
*1509 FILLER_31_296
*1510 FILLER_31_3
*1511 FILLER_31_33
*1512 FILLER_31_45
*1513 FILLER_31_52
*1514 FILLER_31_57
*1515 FILLER_31_69
*1516 FILLER_31_85
*1517 FILLER_31_97
*1518 FILLER_32_109
*1519 FILLER_32_115
*1520 FILLER_32_120
*1521 FILLER_32_132
*1522 FILLER_32_141
*1523 FILLER_32_15
*1524 FILLER_32_153
*1525 FILLER_32_165
*1526 FILLER_32_177
*1527 FILLER_32_189
*1528 FILLER_32_195
*1529 FILLER_32_197
*1530 FILLER_32_207
*1531 FILLER_32_219
*1532 FILLER_32_231
*1533 FILLER_32_242
*1534 FILLER_32_246
*1535 FILLER_32_250
*1536 FILLER_32_253
*1537 FILLER_32_264
*1538 FILLER_32_27
*1539 FILLER_32_276
*1540 FILLER_32_284
*1541 FILLER_32_29
*1542 FILLER_32_296
*1543 FILLER_32_3
*1544 FILLER_32_36
*1545 FILLER_32_48
*1546 FILLER_32_60
*1547 FILLER_32_72
*1548 FILLER_32_85
*1549 FILLER_32_97
*1550 FILLER_33_103
*1551 FILLER_33_111
*1552 FILLER_33_113
*1553 FILLER_33_127
*1554 FILLER_33_139
*1555 FILLER_33_148
*1556 FILLER_33_159
*1557 FILLER_33_166
*1558 FILLER_33_169
*1559 FILLER_33_17
*1560 FILLER_33_173
*1561 FILLER_33_181
*1562 FILLER_33_191
*1563 FILLER_33_203
*1564 FILLER_33_209
*1565 FILLER_33_213
*1566 FILLER_33_221
*1567 FILLER_33_225
*1568 FILLER_33_233
*1569 FILLER_33_245
*1570 FILLER_33_254
*1571 FILLER_33_266
*1572 FILLER_33_278
*1573 FILLER_33_281
*1574 FILLER_33_29
*1575 FILLER_33_292
*1576 FILLER_33_298
*1577 FILLER_33_3
*1578 FILLER_33_41
*1579 FILLER_33_46
*1580 FILLER_33_54
*1581 FILLER_33_57
*1582 FILLER_33_69
*1583 FILLER_33_75
*1584 FILLER_33_80
*1585 FILLER_33_9
*1586 FILLER_33_92
*1587 FILLER_33_96
*1588 FILLER_34_11
*1589 FILLER_34_111
*1590 FILLER_34_119
*1591 FILLER_34_125
*1592 FILLER_34_137
*1593 FILLER_34_141
*1594 FILLER_34_153
*1595 FILLER_34_157
*1596 FILLER_34_161
*1597 FILLER_34_173
*1598 FILLER_34_18
*1599 FILLER_34_185
*1600 FILLER_34_193
*1601 FILLER_34_197
*1602 FILLER_34_206
*1603 FILLER_34_217
*1604 FILLER_34_225
*1605 FILLER_34_233
*1606 FILLER_34_245
*1607 FILLER_34_251
*1608 FILLER_34_253
*1609 FILLER_34_257
*1610 FILLER_34_26
*1611 FILLER_34_262
*1612 FILLER_34_274
*1613 FILLER_34_286
*1614 FILLER_34_29
*1615 FILLER_34_296
*1616 FILLER_34_3
*1617 FILLER_34_35
*1618 FILLER_34_47
*1619 FILLER_34_59
*1620 FILLER_34_71
*1621 FILLER_34_83
*1622 FILLER_34_85
*1623 FILLER_34_99
*1624 FILLER_35_110
*1625 FILLER_35_113
*1626 FILLER_35_128
*1627 FILLER_35_135
*1628 FILLER_35_149
*1629 FILLER_35_15
*1630 FILLER_35_159
*1631 FILLER_35_167
*1632 FILLER_35_169
*1633 FILLER_35_181
*1634 FILLER_35_194
*1635 FILLER_35_206
*1636 FILLER_35_218
*1637 FILLER_35_225
*1638 FILLER_35_233
*1639 FILLER_35_240
*1640 FILLER_35_251
*1641 FILLER_35_259
*1642 FILLER_35_266
*1643 FILLER_35_27
*1644 FILLER_35_278
*1645 FILLER_35_281
*1646 FILLER_35_290
*1647 FILLER_35_298
*1648 FILLER_35_3
*1649 FILLER_35_38
*1650 FILLER_35_50
*1651 FILLER_35_57
*1652 FILLER_35_65
*1653 FILLER_35_71
*1654 FILLER_35_78
*1655 FILLER_35_86
*1656 FILLER_35_98
*1657 FILLER_36_109
*1658 FILLER_36_117
*1659 FILLER_36_127
*1660 FILLER_36_138
*1661 FILLER_36_141
*1662 FILLER_36_15
*1663 FILLER_36_151
*1664 FILLER_36_159
*1665 FILLER_36_171
*1666 FILLER_36_183
*1667 FILLER_36_192
*1668 FILLER_36_197
*1669 FILLER_36_209
*1670 FILLER_36_217
*1671 FILLER_36_229
*1672 FILLER_36_237
*1673 FILLER_36_246
*1674 FILLER_36_253
*1675 FILLER_36_265
*1676 FILLER_36_27
*1677 FILLER_36_277
*1678 FILLER_36_29
*1679 FILLER_36_292
*1680 FILLER_36_298
*1681 FILLER_36_3
*1682 FILLER_36_33
*1683 FILLER_36_39
*1684 FILLER_36_48
*1685 FILLER_36_56
*1686 FILLER_36_62
*1687 FILLER_36_74
*1688 FILLER_36_82
*1689 FILLER_36_85
*1690 FILLER_36_99
*1691 FILLER_37_105
*1692 FILLER_37_111
*1693 FILLER_37_113
*1694 FILLER_37_125
*1695 FILLER_37_131
*1696 FILLER_37_14
*1697 FILLER_37_143
*1698 FILLER_37_147
*1699 FILLER_37_158
*1700 FILLER_37_166
*1701 FILLER_37_169
*1702 FILLER_37_181
*1703 FILLER_37_193
*1704 FILLER_37_211
*1705 FILLER_37_217
*1706 FILLER_37_222
*1707 FILLER_37_225
*1708 FILLER_37_233
*1709 FILLER_37_253
*1710 FILLER_37_257
*1711 FILLER_37_26
*1712 FILLER_37_268
*1713 FILLER_37_276
*1714 FILLER_37_281
*1715 FILLER_37_287
*1716 FILLER_37_297
*1717 FILLER_37_3
*1718 FILLER_37_38
*1719 FILLER_37_49
*1720 FILLER_37_55
*1721 FILLER_37_57
*1722 FILLER_37_68