*SPEF "ieee 1481-1999"
*DESIGN "tiny_bnn"
*DATE "11:11:11 Fri 11 11, 1111"
*VENDOR "OpenRCX"
*PROGRAM "Parallel Extraction"
*VERSION "1.0"
*DESIGN_FLOW "NAME_SCOPE LOCAL" "PIN_CAP NONE"
*DIVIDER /
*DELIMITER :
*BUS_DELIMITER []
*T_UNIT 1 NS
*C_UNIT 1 PF
*R_UNIT 1 OHM
*L_UNIT 1 HENRY

*NAME_MAP
*1 io_in[0]
*2 io_in[1]
*3 io_in[2]
*4 io_in[3]
*5 io_in[4]
*6 io_in[5]
*7 io_in[6]
*8 io_in[7]
*9 io_out[0]
*10 io_out[1]
*11 io_out[2]
*12 io_out[3]
*13 io_out[4]
*14 io_out[5]
*15 io_out[6]
*16 io_out[7]
*19 _0000_
*20 _0001_
*21 _0002_
*22 _0003_
*23 _0004_
*24 _0005_
*25 _0006_
*26 _0007_
*27 _0008_
*28 _0009_
*29 _0010_
*30 _0011_
*31 _0012_
*32 _0013_
*33 _0014_
*34 _0015_
*35 _0016_
*36 _0017_
*37 _0018_
*38 _0019_
*39 _0020_
*40 _0021_
*41 _0022_
*42 _0023_
*43 _0024_
*44 _0025_
*45 _0026_
*46 _0027_
*47 _0028_
*48 _0029_
*49 _0030_
*50 _0031_
*51 _0032_
*52 _0033_
*53 _0034_
*54 _0035_
*55 _0036_
*56 _0037_
*57 _0038_
*58 _0039_
*59 _0040_
*60 _0041_
*61 _0042_
*62 _0043_
*63 _0044_
*64 _0045_
*65 _0046_
*66 _0047_
*67 _0048_
*68 _0049_
*69 _0050_
*70 _0051_
*71 _0052_
*72 _0053_
*73 _0054_
*74 _0055_
*75 _0056_
*76 _0057_
*77 _0058_
*78 _0059_
*79 _0060_
*80 _0061_
*81 _0062_
*82 _0063_
*83 _0064_
*84 _0065_
*85 _0066_
*86 _0067_
*87 _0068_
*88 _0069_
*89 _0070_
*90 _0071_
*91 _0072_
*92 _0073_
*93 _0074_
*94 _0075_
*95 _0076_
*96 _0077_
*97 _0078_
*98 _0079_
*99 _0080_
*100 _0081_
*101 _0082_
*102 _0083_
*103 _0084_
*104 _0085_
*105 _0086_
*106 _0087_
*107 _0088_
*108 _0089_
*109 _0090_
*110 _0091_
*111 _0092_
*112 _0093_
*113 _0094_
*114 _0095_
*115 _0096_
*116 _0097_
*117 _0098_
*118 _0099_
*119 _0100_
*120 _0101_
*121 _0102_
*122 _0103_
*123 _0104_
*124 _0105_
*125 _0106_
*126 _0107_
*127 _0108_
*128 _0109_
*129 _0110_
*130 _0111_
*131 _0112_
*132 _0113_
*133 _0114_
*134 _0115_
*135 _0116_
*136 _0117_
*137 _0118_
*138 _0119_
*139 _0120_
*140 _0121_
*141 _0122_
*142 _0123_
*143 _0124_
*144 _0125_
*145 _0126_
*146 _0127_
*147 _0128_
*148 _0129_
*149 _0130_
*150 _0131_
*151 _0132_
*152 _0133_
*153 _0134_
*154 _0135_
*155 _0136_
*156 _0137_
*157 _0138_
*158 _0139_
*159 _0140_
*160 _0141_
*161 _0142_
*162 _0143_
*163 _0144_
*164 _0145_
*165 _0146_
*166 _0147_
*167 _0148_
*168 _0149_
*169 _0150_
*170 _0151_
*171 _0152_
*172 _0153_
*173 _0154_
*174 _0155_
*175 _0156_
*176 _0157_
*177 _0158_
*178 _0159_
*179 _0160_
*180 _0161_
*181 _0162_
*182 _0163_
*183 _0164_
*184 _0165_
*185 _0166_
*186 _0167_
*187 _0168_
*188 _0169_
*189 _0170_
*190 _0171_
*191 _0172_
*192 _0173_
*193 _0174_
*194 _0175_
*195 _0176_
*196 _0177_
*197 _0178_
*198 _0179_
*199 _0180_
*200 _0181_
*201 _0182_
*202 _0183_
*203 _0184_
*204 _0185_
*205 _0186_
*206 _0187_
*207 _0188_
*208 _0189_
*209 _0190_
*210 _0191_
*211 _0192_
*212 _0193_
*213 _0194_
*214 _0195_
*215 _0196_
*216 _0197_
*217 _0198_
*218 _0199_
*219 _0200_
*220 _0201_
*221 _0202_
*222 _0203_
*223 _0204_
*224 _0205_
*225 _0206_
*226 _0207_
*227 _0208_
*228 _0209_
*229 _0210_
*230 _0211_
*231 _0212_
*232 _0213_
*233 _0214_
*234 _0215_
*235 _0216_
*236 _0217_
*237 _0218_
*238 _0219_
*239 _0220_
*240 _0221_
*241 _0222_
*242 _0223_
*243 _0224_
*244 _0225_
*245 _0226_
*246 _0227_
*247 _0228_
*248 _0229_
*249 _0230_
*250 _0231_
*251 _0232_
*252 _0233_
*253 _0234_
*254 _0235_
*255 _0236_
*256 _0237_
*257 _0238_
*258 _0239_
*259 _0240_
*260 _0241_
*261 _0242_
*262 _0243_
*263 _0244_
*264 _0245_
*265 _0246_
*266 _0247_
*267 _0248_
*268 _0249_
*269 _0250_
*270 _0251_
*271 _0252_
*272 _0253_
*273 _0254_
*274 _0255_
*275 _0256_
*276 _0257_
*277 _0258_
*278 _0259_
*279 _0260_
*280 _0261_
*281 _0262_
*282 _0263_
*283 _0264_
*284 _0265_
*285 _0266_
*286 _0267_
*287 _0268_
*288 _0269_
*289 _0270_
*290 _0271_
*291 _0272_
*292 _0273_
*293 _0274_
*294 _0275_
*295 _0276_
*296 _0277_
*297 _0278_
*298 _0279_
*299 _0280_
*300 _0281_
*301 _0282_
*302 _0283_
*303 _0284_
*304 _0285_
*305 _0286_
*306 _0287_
*307 _0288_
*308 _0289_
*309 _0290_
*310 _0291_
*311 _0292_
*312 _0293_
*313 _0294_
*314 _0295_
*315 _0296_
*316 _0297_
*317 _0298_
*318 _0299_
*319 _0300_
*320 _0301_
*321 _0302_
*322 _0303_
*323 _0304_
*324 _0305_
*325 _0306_
*326 _0307_
*327 _0308_
*328 _0309_
*329 _0310_
*330 _0311_
*331 _0312_
*332 _0313_
*333 _0314_
*334 _0315_
*335 _0316_
*336 _0317_
*337 _0318_
*338 _0319_
*339 _0320_
*340 _0321_
*341 _0322_
*342 _0323_
*343 _0324_
*344 _0325_
*345 _0326_
*346 _0327_
*347 _0328_
*348 _0329_
*349 _0330_
*350 _0331_
*351 _0332_
*352 _0333_
*353 _0334_
*354 _0335_
*355 _0336_
*356 _0337_
*357 _0338_
*358 _0339_
*359 _0340_
*360 _0341_
*361 _0342_
*362 _0343_
*363 _0344_
*364 _0345_
*365 _0346_
*366 _0347_
*367 _0348_
*368 _0349_
*369 _0350_
*370 _0351_
*371 _0352_
*372 _0353_
*373 _0354_
*374 _0355_
*375 _0356_
*376 _0357_
*377 _0358_
*378 _0359_
*379 _0360_
*380 _0361_
*381 _0362_
*382 _0363_
*383 _0364_
*384 _0365_
*385 _0366_
*386 _0367_
*387 _0368_
*388 _0369_
*389 _0370_
*390 _0371_
*391 _0372_
*392 _0373_
*393 _0374_
*394 _0375_
*395 _0376_
*396 _0377_
*397 _0378_
*398 _0379_
*399 _0380_
*400 _0381_
*401 _0382_
*402 _0383_
*403 _0384_
*404 _0385_
*405 _0386_
*406 _0387_
*407 _0388_
*408 _0389_
*409 _0390_
*410 _0391_
*411 _0392_
*412 _0393_
*413 _0394_
*414 _0395_
*415 _0396_
*416 _0397_
*417 _0398_
*418 _0399_
*419 _0400_
*420 _0401_
*421 _0402_
*422 _0403_
*423 _0404_
*424 _0405_
*425 _0406_
*426 _0407_
*427 _0408_
*428 _0409_
*429 _0410_
*430 _0411_
*431 _0412_
*432 _0413_
*433 _0414_
*434 _0415_
*435 _0416_
*436 _0417_
*437 _0418_
*438 _0419_
*439 _0420_
*440 _0421_
*441 _0422_
*442 _0423_
*443 _0424_
*444 _0425_
*445 _0426_
*446 _0427_
*447 _0428_
*448 _0429_
*449 _0430_
*450 _0431_
*451 _0432_
*452 _0433_
*453 _0434_
*454 _0435_
*455 _0436_
*456 _0437_
*457 _0438_
*458 _0439_
*459 _0440_
*460 _0441_
*461 _0442_
*462 _0443_
*463 _0444_
*464 _0445_
*465 _0446_
*466 _0447_
*467 _0448_
*468 _0449_
*469 _0450_
*470 _0451_
*471 _0452_
*472 _0453_
*473 _0454_
*474 _0455_
*475 _0456_
*476 _0457_
*477 _0458_
*478 _0459_
*479 _0460_
*480 _0461_
*481 _0462_
*482 _0463_
*483 _0464_
*484 _0465_
*485 _0466_
*486 _0467_
*487 _0468_
*488 _0469_
*489 _0470_
*490 _0471_
*491 _0472_
*492 _0473_
*493 _0474_
*494 _0475_
*495 _0476_
*496 _0477_
*497 _0478_
*498 _0479_
*499 _0480_
*500 _0481_
*501 _0482_
*502 _0483_
*503 _0484_
*504 _0485_
*505 _0486_
*506 _0487_
*507 _0488_
*508 _0489_
*509 _0490_
*510 _0491_
*511 _0492_
*512 _0493_
*513 _0494_
*514 _0495_
*515 _0496_
*516 _0497_
*517 _0498_
*518 _0499_
*519 _0500_
*520 _0501_
*521 _0502_
*522 _0503_
*523 _0504_
*524 _0505_
*525 _0506_
*526 _0507_
*527 _0508_
*528 _0509_
*529 _0510_
*530 _0511_
*531 _0512_
*532 _0513_
*533 _0514_
*534 _0515_
*535 _0516_
*536 _0517_
*537 _0518_
*538 _0519_
*539 _0520_
*540 _0521_
*541 _0522_
*542 _0523_
*543 _0524_
*544 _0525_
*545 _0526_
*546 _0527_
*547 _0528_
*548 _0529_
*549 _0530_
*550 _0531_
*551 _0532_
*552 _0533_
*553 _0534_
*554 _0535_
*555 _0536_
*556 _0537_
*557 _0538_
*558 _0539_
*559 _0540_
*560 _0541_
*561 _0542_
*562 _0543_
*563 _0544_
*564 _0545_
*565 _0546_
*566 _0547_
*567 _0548_
*568 _0549_
*569 _0550_
*570 _0551_
*571 _0552_
*572 _0553_
*573 _0554_
*574 _0555_
*575 _0556_
*576 _0557_
*577 _0558_
*578 _0559_
*579 _0560_
*580 _0561_
*581 _0562_
*582 _0563_
*583 _0564_
*584 _0565_
*585 _0566_
*586 _0567_
*587 _0568_
*588 _0569_
*589 _0570_
*590 _0571_
*591 _0572_
*592 _0573_
*593 _0574_
*594 _0575_
*595 _0576_
*596 _0577_
*597 _0578_
*598 _0579_
*599 _0580_
*600 _0581_
*601 _0582_
*602 _0583_
*603 _0584_
*604 _0585_
*605 _0586_
*606 _0587_
*607 _0588_
*608 _0589_
*609 _0590_
*610 _0591_
*611 _0592_
*612 _0593_
*613 _0594_
*614 _0595_
*615 _0596_
*616 _0597_
*617 _0598_
*618 _0599_
*619 _0600_
*620 _0601_
*621 _0602_
*622 _0603_
*623 _0604_
*624 _0605_
*625 _0606_
*626 _0607_
*627 _0608_
*628 _0609_
*629 _0610_
*630 _0611_
*631 _0612_
*632 _0613_
*633 _0614_
*634 _0615_
*635 _0616_
*636 _0617_
*637 _0618_
*638 _0619_
*639 _0620_
*640 _0621_
*641 _0622_
*642 _0623_
*643 _0624_
*644 _0625_
*645 _0626_
*646 _0627_
*647 _0628_
*648 _0629_
*649 _0630_
*650 _0631_
*651 _0632_
*652 _0633_
*653 _0634_
*654 _0635_
*655 _0636_
*656 _0637_
*657 _0638_
*658 _0639_
*659 _0640_
*660 _0641_
*661 _0642_
*662 _0643_
*663 _0644_
*664 _0645_
*665 _0646_
*666 _0647_
*667 _0648_
*668 _0649_
*669 _0650_
*670 _0651_
*671 _0652_
*672 _0653_
*673 _0654_
*674 _0655_
*675 _0656_
*676 _0657_
*677 _0658_
*678 _0659_
*679 _0660_
*680 _0661_
*681 _0662_
*682 _0663_
*683 _0664_
*684 _0665_
*685 _0666_
*686 _0667_
*687 _0668_
*688 _0669_
*689 _0670_
*690 _0671_
*691 _0672_
*692 _0673_
*693 _0674_
*694 _0675_
*695 _0676_
*696 _0677_
*697 _0678_
*698 _0679_
*699 _0680_
*700 _0681_
*701 _0682_
*702 _0683_
*703 _0684_
*704 _0685_
*705 _0686_
*706 _0687_
*707 _0688_
*708 _0689_
*709 _0690_
*710 _0691_
*711 _0692_
*712 _0693_
*713 _0694_
*714 _0695_
*715 _0696_
*716 _0697_
*717 _0698_
*718 _0699_
*719 _0700_
*720 _0701_
*721 _0702_
*722 _0703_
*723 _0704_
*724 _0705_
*725 _0706_
*726 _0707_
*727 _0708_
*728 _0709_
*729 _0710_
*730 _0711_
*731 _0712_
*732 _0713_
*733 _0714_
*734 _0715_
*735 _0716_
*736 _0717_
*737 _0718_
*738 _0719_
*739 _0720_
*740 _0721_
*741 _0722_
*742 _0723_
*743 _0724_
*744 _0725_
*745 _0726_
*746 _0727_
*747 _0728_
*748 _0729_
*749 _0730_
*750 _0731_
*751 _0732_
*752 _0733_
*753 _0734_
*754 _0735_
*755 _0736_
*756 _0737_
*757 _0738_
*758 _0739_
*759 _0740_
*760 _0741_
*761 _0742_
*762 _0743_
*763 _0744_
*764 _0745_
*765 _0746_
*766 _0747_
*767 _0748_
*768 _0749_
*769 _0750_
*770 _0751_
*771 _0752_
*772 _0753_
*773 _0754_
*774 _0755_
*775 _0756_
*776 _0757_
*777 _0758_
*778 _0759_
*779 _0760_
*780 _0761_
*781 _0762_
*782 _0763_
*783 _0764_
*784 _0765_
*785 _0766_
*786 _0767_
*787 _0768_
*788 _0769_
*789 _0770_
*790 _0771_
*791 _0772_
*792 _0773_
*793 _0774_
*794 _0775_
*795 _0776_
*796 _0777_
*797 _0778_
*798 _0779_
*799 _0780_
*800 _0781_
*801 _0782_
*802 _0783_
*803 _0784_
*804 _0785_
*805 _0786_
*806 _0787_
*807 _0788_
*808 _0789_
*809 _0790_
*810 _0791_
*811 _0792_
*812 _0793_
*813 _0794_
*814 _0795_
*815 _0796_
*816 _0797_
*817 _0798_
*818 _0799_
*819 _0800_
*820 _0801_
*821 _0802_
*822 _0803_
*823 _0804_
*824 _0805_
*825 _0806_
*826 _0807_
*827 _0808_
*828 _0809_
*829 _0810_
*830 _0811_
*831 _0812_
*832 _0813_
*833 _0814_
*834 _0815_
*835 _0816_
*836 _0817_
*837 _0818_
*838 _0819_
*839 _0820_
*840 _0821_
*841 _0822_
*842 _0823_
*843 _0824_
*844 _0825_
*845 _0826_
*846 _0827_
*847 _0828_
*848 _0829_
*849 _0830_
*850 _0831_
*851 _0832_
*852 _0833_
*853 _0834_
*854 _0835_
*855 _0836_
*856 _0837_
*857 _0838_
*858 _0839_
*859 _0840_
*860 _0841_
*861 _0842_
*862 _0843_
*863 _0844_
*864 _0845_
*865 _0846_
*866 _0847_
*867 _0848_
*868 _0849_
*869 _0850_
*870 _0851_
*871 _0852_
*872 _0853_
*873 _0854_
*874 _0855_
*875 _0856_
*876 _0857_
*877 _0858_
*878 _0859_
*879 _0860_
*880 _0861_
*881 _0862_
*882 _0863_
*883 _0864_
*884 _0865_
*885 _0866_
*886 _0867_
*887 _0868_
*888 _0869_
*889 _0870_
*890 _0871_
*891 _0872_
*892 _0873_
*893 _0874_
*894 _0875_
*895 _0876_
*896 _0877_
*897 _0878_
*898 _0879_
*899 _0880_
*900 _0881_
*901 _0882_
*902 _0883_
*903 _0884_
*904 _0885_
*905 _0886_
*906 _0887_
*907 _0888_
*908 _0889_
*909 _0890_
*910 _0891_
*911 _0892_
*912 _0893_
*913 _0894_
*914 _0895_
*915 _0896_
*916 _0897_
*917 _0898_
*918 _0899_
*919 _0900_
*920 _0901_
*921 _0902_
*922 _0903_
*923 _0904_
*924 _0905_
*925 _0906_
*926 _0907_
*927 _0908_
*928 _0909_
*929 _0910_
*930 _0911_
*931 _0912_
*932 _0913_
*933 _0914_
*934 _0915_
*935 _0916_
*936 _0917_
*937 _0918_
*938 _0919_
*939 _0920_
*940 _0921_
*941 _0922_
*942 _0923_
*943 _0924_
*944 _0925_
*945 _0926_
*946 _0927_
*947 _0928_
*948 _0929_
*949 _0930_
*950 _0931_
*951 _0932_
*952 _0933_
*953 _0934_
*954 clknet_0_io_in[0]
*955 clknet_4_0_0_io_in[0]
*956 clknet_4_10_0_io_in[0]
*957 clknet_4_11_0_io_in[0]
*958 clknet_4_12_0_io_in[0]
*959 clknet_4_13_0_io_in[0]
*960 clknet_4_14_0_io_in[0]
*961 clknet_4_15_0_io_in[0]
*962 clknet_4_1_0_io_in[0]
*963 clknet_4_2_0_io_in[0]
*964 clknet_4_3_0_io_in[0]
*965 clknet_4_4_0_io_in[0]
*966 clknet_4_5_0_io_in[0]
*967 clknet_4_6_0_io_in[0]
*968 clknet_4_7_0_io_in[0]
*969 clknet_4_8_0_io_in[0]
*970 clknet_4_9_0_io_in[0]
*971 genblk1\.genblk1\.genblk1\[0\]\.input_layer\.bias\[0\]
*972 genblk1\.genblk1\.genblk1\[0\]\.input_layer\.bias\[1\]
*973 genblk1\.genblk1\.genblk1\[0\]\.input_layer\.bias\[2\]
*974 genblk1\.genblk1\.genblk1\[0\]\.input_layer\.inputs\[0\]
*975 genblk1\.genblk1\.genblk1\[0\]\.input_layer\.inputs\[1\]
*976 genblk1\.genblk1\.genblk1\[0\]\.input_layer\.inputs\[2\]
*977 genblk1\.genblk1\.genblk1\[0\]\.input_layer\.inputs\[3\]
*978 genblk1\.genblk1\.genblk1\[0\]\.input_layer\.inputs\[4\]
*979 genblk1\.genblk1\.genblk1\[0\]\.input_layer\.inputs\[5\]
*980 genblk1\.genblk1\.genblk1\[0\]\.input_layer\.inputs\[6\]
*981 genblk1\.genblk1\.genblk1\[0\]\.input_layer\.inputs\[7\]
*982 genblk1\.genblk1\.genblk1\[0\]\.input_layer\.weights\[0\]
*983 genblk1\.genblk1\.genblk1\[0\]\.input_layer\.weights\[1\]
*984 genblk1\.genblk1\.genblk1\[0\]\.input_layer\.weights\[2\]
*985 genblk1\.genblk1\.genblk1\[0\]\.input_layer\.weights\[3\]
*986 genblk1\.genblk1\.genblk1\[0\]\.input_layer\.weights\[4\]
*987 genblk1\.genblk1\.genblk1\[0\]\.input_layer\.weights\[5\]
*988 genblk1\.genblk1\.genblk1\[0\]\.input_layer\.weights\[6\]
*989 genblk1\.genblk1\.genblk1\[0\]\.input_layer\.weights\[7\]
*990 genblk1\.genblk1\.genblk1\[1\]\.input_layer\.bias\[0\]
*991 genblk1\.genblk1\.genblk1\[1\]\.input_layer\.bias\[1\]
*992 genblk1\.genblk1\.genblk1\[1\]\.input_layer\.bias\[2\]
*993 genblk1\.genblk1\.genblk1\[1\]\.input_layer\.weights\[0\]
*994 genblk1\.genblk1\.genblk1\[1\]\.input_layer\.weights\[1\]
*995 genblk1\.genblk1\.genblk1\[1\]\.input_layer\.weights\[2\]
*996 genblk1\.genblk1\.genblk1\[1\]\.input_layer\.weights\[3\]
*997 genblk1\.genblk1\.genblk1\[1\]\.input_layer\.weights\[4\]
*998 genblk1\.genblk1\.genblk1\[1\]\.input_layer\.weights\[5\]
*999 genblk1\.genblk1\.genblk1\[1\]\.input_layer\.weights\[6\]
*1000 genblk1\.genblk1\.genblk1\[1\]\.input_layer\.weights\[7\]
*1001 genblk1\.genblk1\.genblk1\[2\]\.input_layer\.bias\[0\]
*1002 genblk1\.genblk1\.genblk1\[2\]\.input_layer\.bias\[1\]
*1003 genblk1\.genblk1\.genblk1\[2\]\.input_layer\.bias\[2\]
*1004 genblk1\.genblk1\.genblk1\[2\]\.input_layer\.weights\[0\]
*1005 genblk1\.genblk1\.genblk1\[2\]\.input_layer\.weights\[1\]
*1006 genblk1\.genblk1\.genblk1\[2\]\.input_layer\.weights\[2\]
*1007 genblk1\.genblk1\.genblk1\[2\]\.input_layer\.weights\[3\]
*1008 genblk1\.genblk1\.genblk1\[2\]\.input_layer\.weights\[4\]
*1009 genblk1\.genblk1\.genblk1\[2\]\.input_layer\.weights\[5\]
*1010 genblk1\.genblk1\.genblk1\[2\]\.input_layer\.weights\[6\]
*1011 genblk1\.genblk1\.genblk1\[2\]\.input_layer\.weights\[7\]
*1012 genblk1\.genblk1\.genblk1\[3\]\.input_layer\.bias\[0\]
*1013 genblk1\.genblk1\.genblk1\[3\]\.input_layer\.bias\[1\]
*1014 genblk1\.genblk1\.genblk1\[3\]\.input_layer\.bias\[2\]
*1015 genblk1\.genblk1\.genblk1\[3\]\.input_layer\.weights\[0\]
*1016 genblk1\.genblk1\.genblk1\[3\]\.input_layer\.weights\[1\]
*1017 genblk1\.genblk1\.genblk1\[3\]\.input_layer\.weights\[2\]
*1018 genblk1\.genblk1\.genblk1\[3\]\.input_layer\.weights\[3\]
*1019 genblk1\.genblk1\.genblk1\[3\]\.input_layer\.weights\[4\]
*1020 genblk1\.genblk1\.genblk1\[3\]\.input_layer\.weights\[5\]
*1021 genblk1\.genblk1\.genblk1\[3\]\.input_layer\.weights\[6\]
*1022 genblk1\.genblk1\.genblk1\[3\]\.input_layer\.weights\[7\]
*1023 genblk1\.genblk1\.genblk1\[4\]\.input_layer\.bias\[0\]
*1024 genblk1\.genblk1\.genblk1\[4\]\.input_layer\.bias\[1\]
*1025 genblk1\.genblk1\.genblk1\[4\]\.input_layer\.bias\[2\]
*1026 genblk1\.genblk1\.genblk1\[4\]\.input_layer\.weights\[0\]
*1027 genblk1\.genblk1\.genblk1\[4\]\.input_layer\.weights\[1\]
*1028 genblk1\.genblk1\.genblk1\[4\]\.input_layer\.weights\[2\]
*1029 genblk1\.genblk1\.genblk1\[4\]\.input_layer\.weights\[3\]
*1030 genblk1\.genblk1\.genblk1\[4\]\.input_layer\.weights\[4\]
*1031 genblk1\.genblk1\.genblk1\[4\]\.input_layer\.weights\[5\]
*1032 genblk1\.genblk1\.genblk1\[4\]\.input_layer\.weights\[6\]
*1033 genblk1\.genblk1\.genblk1\[4\]\.input_layer\.weights\[7\]
*1034 genblk1\.genblk1\.genblk1\[5\]\.input_layer\.bias\[0\]
*1035 genblk1\.genblk1\.genblk1\[5\]\.input_layer\.bias\[1\]
*1036 genblk1\.genblk1\.genblk1\[5\]\.input_layer\.bias\[2\]
*1037 genblk1\.genblk1\.genblk1\[5\]\.input_layer\.weights\[0\]
*1038 genblk1\.genblk1\.genblk1\[5\]\.input_layer\.weights\[1\]
*1039 genblk1\.genblk1\.genblk1\[5\]\.input_layer\.weights\[2\]
*1040 genblk1\.genblk1\.genblk1\[5\]\.input_layer\.weights\[3\]
*1041 genblk1\.genblk1\.genblk1\[5\]\.input_layer\.weights\[4\]
*1042 genblk1\.genblk1\.genblk1\[5\]\.input_layer\.weights\[5\]
*1043 genblk1\.genblk1\.genblk1\[5\]\.input_layer\.weights\[6\]
*1044 genblk1\.genblk1\.genblk1\[5\]\.input_layer\.weights\[7\]
*1045 genblk1\.genblk1\.genblk1\[6\]\.input_layer\.bias\[0\]
*1046 genblk1\.genblk1\.genblk1\[6\]\.input_layer\.bias\[1\]
*1047 genblk1\.genblk1\.genblk1\[6\]\.input_layer\.bias\[2\]
*1048 genblk1\.genblk1\.genblk1\[6\]\.input_layer\.weights\[0\]
*1049 genblk1\.genblk1\.genblk1\[6\]\.input_layer\.weights\[1\]
*1050 genblk1\.genblk1\.genblk1\[6\]\.input_layer\.weights\[2\]
*1051 genblk1\.genblk1\.genblk1\[6\]\.input_layer\.weights\[3\]
*1052 genblk1\.genblk1\.genblk1\[6\]\.input_layer\.weights\[4\]
*1053 genblk1\.genblk1\.genblk1\[6\]\.input_layer\.weights\[5\]
*1054 genblk1\.genblk1\.genblk1\[6\]\.input_layer\.weights\[6\]
*1055 genblk1\.genblk1\.genblk1\[6\]\.input_layer\.weights\[7\]
*1056 genblk1\.genblk1\.genblk1\[7\]\.input_layer\.bias\[0\]
*1057 genblk1\.genblk1\.genblk1\[7\]\.input_layer\.bias\[1\]
*1058 genblk1\.genblk1\.genblk1\[7\]\.input_layer\.bias\[2\]
*1059 genblk1\.genblk1\.genblk1\[7\]\.input_layer\.weights\[0\]
*1060 genblk1\.genblk1\.genblk1\[7\]\.input_layer\.weights\[1\]
*1061 genblk1\.genblk1\.genblk1\[7\]\.input_layer\.weights\[2\]
*1062 genblk1\.genblk1\.genblk1\[7\]\.input_layer\.weights\[3\]
*1063 genblk1\.genblk1\.genblk1\[7\]\.input_layer\.weights\[4\]
*1064 genblk1\.genblk1\.genblk1\[7\]\.input_layer\.weights\[5\]
*1065 genblk1\.genblk1\.genblk1\[7\]\.input_layer\.weights\[6\]
*1066 genblk1\.genblk1\.genblk1\[7\]\.input_layer\.weights\[7\]
*1067 genblk1\.genblk1\.genblk2\[0\]\.output_layer\.axon
*1068 genblk1\.genblk1\.genblk2\[0\]\.output_layer\.bias\[0\]
*1069 genblk1\.genblk1\.genblk2\[0\]\.output_layer\.bias\[1\]
*1070 genblk1\.genblk1\.genblk2\[0\]\.output_layer\.bias\[2\]
*1071 genblk1\.genblk1\.genblk2\[0\]\.output_layer\.weights\[0\]
*1072 genblk1\.genblk1\.genblk2\[0\]\.output_layer\.weights\[1\]
*1073 genblk1\.genblk1\.genblk2\[0\]\.output_layer\.weights\[2\]
*1074 genblk1\.genblk1\.genblk2\[0\]\.output_layer\.weights\[3\]
*1075 genblk1\.genblk1\.genblk2\[0\]\.output_layer\.weights\[4\]
*1076 genblk1\.genblk1\.genblk2\[0\]\.output_layer\.weights\[5\]
*1077 genblk1\.genblk1\.genblk2\[0\]\.output_layer\.weights\[6\]
*1078 genblk1\.genblk1\.genblk2\[0\]\.output_layer\.weights\[7\]
*1079 genblk1\.genblk1\.genblk2\[1\]\.output_layer\.axon
*1080 genblk1\.genblk1\.genblk2\[1\]\.output_layer\.bias\[0\]
*1081 genblk1\.genblk1\.genblk2\[1\]\.output_layer\.bias\[1\]
*1082 genblk1\.genblk1\.genblk2\[1\]\.output_layer\.bias\[2\]
*1083 genblk1\.genblk1\.genblk2\[1\]\.output_layer\.weights\[0\]
*1084 genblk1\.genblk1\.genblk2\[1\]\.output_layer\.weights\[1\]
*1085 genblk1\.genblk1\.genblk2\[1\]\.output_layer\.weights\[2\]
*1086 genblk1\.genblk1\.genblk2\[1\]\.output_layer\.weights\[3\]
*1087 genblk1\.genblk1\.genblk2\[1\]\.output_layer\.weights\[4\]
*1088 genblk1\.genblk1\.genblk2\[1\]\.output_layer\.weights\[5\]
*1089 genblk1\.genblk1\.genblk2\[1\]\.output_layer\.weights\[6\]
*1090 genblk1\.genblk1\.genblk2\[1\]\.output_layer\.weights\[7\]
*1091 genblk1\.genblk1\.genblk2\[2\]\.output_layer\.axon
*1092 genblk1\.genblk1\.genblk2\[2\]\.output_layer\.bias\[0\]
*1093 genblk1\.genblk1\.genblk2\[2\]\.output_layer\.bias\[1\]
*1094 genblk1\.genblk1\.genblk2\[2\]\.output_layer\.bias\[2\]
*1095 genblk1\.genblk1\.genblk2\[2\]\.output_layer\.weights\[0\]
*1096 genblk1\.genblk1\.genblk2\[2\]\.output_layer\.weights\[1\]
*1097 genblk1\.genblk1\.genblk2\[2\]\.output_layer\.weights\[2\]
*1098 genblk1\.genblk1\.genblk2\[2\]\.output_layer\.weights\[3\]
*1099 genblk1\.genblk1\.genblk2\[2\]\.output_layer\.weights\[4\]
*1100 genblk1\.genblk1\.genblk2\[2\]\.output_layer\.weights\[5\]
*1101 genblk1\.genblk1\.genblk2\[2\]\.output_layer\.weights\[6\]
*1102 genblk1\.genblk1\.genblk2\[2\]\.output_layer\.weights\[7\]
*1103 genblk1\.genblk1\.genblk2\[3\]\.output_layer\.axon
*1104 genblk1\.genblk1\.genblk2\[3\]\.output_layer\.bias\[0\]
*1105 genblk1\.genblk1\.genblk2\[3\]\.output_layer\.bias\[1\]
*1106 genblk1\.genblk1\.genblk2\[3\]\.output_layer\.bias\[2\]
*1107 genblk1\.genblk1\.genblk2\[3\]\.output_layer\.weights\[0\]
*1108 genblk1\.genblk1\.genblk2\[3\]\.output_layer\.weights\[1\]
*1109 genblk1\.genblk1\.genblk2\[3\]\.output_layer\.weights\[2\]
*1110 genblk1\.genblk1\.genblk2\[3\]\.output_layer\.weights\[3\]
*1111 genblk1\.genblk1\.genblk2\[3\]\.output_layer\.weights\[4\]
*1112 genblk1\.genblk1\.genblk2\[3\]\.output_layer\.weights\[5\]
*1113 genblk1\.genblk1\.genblk2\[3\]\.output_layer\.weights\[6\]
*1114 genblk1\.genblk1\.genblk2\[3\]\.output_layer\.weights\[7\]
*1115 genblk1\.genblk1\.genblk2\[4\]\.output_layer\.axon
*1116 genblk1\.genblk1\.genblk2\[4\]\.output_layer\.bias\[0\]
*1117 genblk1\.genblk1\.genblk2\[4\]\.output_layer\.bias\[1\]
*1118 genblk1\.genblk1\.genblk2\[4\]\.output_layer\.bias\[2\]
*1119 genblk1\.genblk1\.genblk2\[4\]\.output_layer\.weights\[0\]
*1120 genblk1\.genblk1\.genblk2\[4\]\.output_layer\.weights\[1\]
*1121 genblk1\.genblk1\.genblk2\[4\]\.output_layer\.weights\[2\]
*1122 genblk1\.genblk1\.genblk2\[4\]\.output_layer\.weights\[3\]
*1123 genblk1\.genblk1\.genblk2\[4\]\.output_layer\.weights\[4\]
*1124 genblk1\.genblk1\.genblk2\[4\]\.output_layer\.weights\[5\]
*1125 genblk1\.genblk1\.genblk2\[4\]\.output_layer\.weights\[6\]
*1126 genblk1\.genblk1\.genblk2\[4\]\.output_layer\.weights\[7\]
*1127 genblk1\.genblk1\.genblk2\[5\]\.output_layer\.axon
*1128 genblk1\.genblk1\.genblk2\[5\]\.output_layer\.bias\[0\]
*1129 genblk1\.genblk1\.genblk2\[5\]\.output_layer\.bias\[1\]
*1130 genblk1\.genblk1\.genblk2\[5\]\.output_layer\.bias\[2\]
*1131 genblk1\.genblk1\.genblk2\[5\]\.output_layer\.weights\[0\]
*1132 genblk1\.genblk1\.genblk2\[5\]\.output_layer\.weights\[1\]
*1133 genblk1\.genblk1\.genblk2\[5\]\.output_layer\.weights\[2\]
*1134 genblk1\.genblk1\.genblk2\[5\]\.output_layer\.weights\[3\]
*1135 genblk1\.genblk1\.genblk2\[5\]\.output_layer\.weights\[4\]
*1136 genblk1\.genblk1\.genblk2\[5\]\.output_layer\.weights\[5\]
*1137 genblk1\.genblk1\.genblk2\[5\]\.output_layer\.weights\[6\]
*1138 genblk1\.genblk1\.genblk2\[5\]\.output_layer\.weights\[7\]
*1139 genblk1\.genblk1\.genblk2\[6\]\.output_layer\.axon
*1140 genblk1\.genblk1\.genblk2\[6\]\.output_layer\.bias\[0\]
*1141 genblk1\.genblk1\.genblk2\[6\]\.output_layer\.bias\[1\]
*1142 genblk1\.genblk1\.genblk2\[6\]\.output_layer\.bias\[2\]
*1143 genblk1\.genblk1\.genblk2\[6\]\.output_layer\.weights\[0\]
*1144 genblk1\.genblk1\.genblk2\[6\]\.output_layer\.weights\[1\]
*1145 genblk1\.genblk1\.genblk2\[6\]\.output_layer\.weights\[2\]
*1146 genblk1\.genblk1\.genblk2\[6\]\.output_layer\.weights\[3\]
*1147 genblk1\.genblk1\.genblk2\[6\]\.output_layer\.weights\[4\]
*1148 genblk1\.genblk1\.genblk2\[6\]\.output_layer\.weights\[5\]
*1149 genblk1\.genblk1\.genblk2\[6\]\.output_layer\.weights\[6\]
*1150 genblk1\.genblk1\.genblk2\[6\]\.output_layer\.weights\[7\]
*1151 genblk1\.genblk1\.genblk2\[7\]\.output_layer\.bias\[0\]
*1152 genblk1\.genblk1\.genblk2\[7\]\.output_layer\.bias\[1\]
*1153 genblk1\.genblk1\.genblk2\[7\]\.output_layer\.bias\[2\]
*1154 genblk1\.genblk1\.genblk2\[7\]\.output_layer\.weights\[0\]
*1155 genblk1\.genblk1\.genblk2\[7\]\.output_layer\.weights\[1\]
*1156 genblk1\.genblk1\.genblk2\[7\]\.output_layer\.weights\[2\]
*1157 genblk1\.genblk1\.genblk2\[7\]\.output_layer\.weights\[3\]
*1158 genblk1\.genblk1\.genblk2\[7\]\.output_layer\.weights\[4\]
*1159 genblk1\.genblk1\.genblk2\[7\]\.output_layer\.weights\[5\]
*1160 genblk1\.genblk1\.genblk2\[7\]\.output_layer\.weights\[6\]
*1161 genblk1\.genblk1\.genblk2\[7\]\.output_layer\.weights\[7\]
*1162 net1
*1163 net2
*1164 net3
*1165 net4
*1166 net5
*1167 net6
*1168 net7
*1169 ANTENNA_1
*1170 FILLER_0_103
*1171 FILLER_0_111
*1172 FILLER_0_113
*1173 FILLER_0_132
*1174 FILLER_0_141
*1175 FILLER_0_145
*1176 FILLER_0_149
*1177 FILLER_0_164
*1178 FILLER_0_169
*1179 FILLER_0_181
*1180 FILLER_0_185
*1181 FILLER_0_189
*1182 FILLER_0_195
*1183 FILLER_0_197
*1184 FILLER_0_21
*1185 FILLER_0_215
*1186 FILLER_0_222
*1187 FILLER_0_225
*1188 FILLER_0_230
*1189 FILLER_0_242
*1190 FILLER_0_250
*1191 FILLER_0_253
*1192 FILLER_0_27
*1193 FILLER_0_271
*1194 FILLER_0_279
*1195 FILLER_0_281
*1196 FILLER_0_29
*1197 FILLER_0_293
*1198 FILLER_0_3
*1199 FILLER_0_35
*1200 FILLER_0_39
*1201 FILLER_0_46
*1202 FILLER_0_53
*1203 FILLER_0_57
*1204 FILLER_0_75
*1205 FILLER_0_82
*1206 FILLER_0_85
*1207 FILLER_0_91
*1208 FILLER_10_100
*1209 FILLER_10_111
*1210 FILLER_10_119
*1211 FILLER_10_129
*1212 FILLER_10_138
*1213 FILLER_10_141
*1214 FILLER_10_152
*1215 FILLER_10_159
*1216 FILLER_10_167
*1217 FILLER_10_184
*1218 FILLER_10_193
*1219 FILLER_10_197
*1220 FILLER_10_20
*1221 FILLER_10_208
*1222 FILLER_10_221
*1223 FILLER_10_229
*1224 FILLER_10_236
*1225 FILLER_10_243
*1226 FILLER_10_250
*1227 FILLER_10_253
*1228 FILLER_10_261
*1229 FILLER_10_268
*1230 FILLER_10_275
*1231 FILLER_10_289
*1232 FILLER_10_29
*1233 FILLER_10_297
*1234 FILLER_10_3
*1235 FILLER_10_34
*1236 FILLER_10_43
*1237 FILLER_10_51
*1238 FILLER_10_56
*1239 FILLER_10_63
*1240 FILLER_10_74
*1241 FILLER_10_78
*1242 FILLER_10_82
*1243 FILLER_10_85
*1244 FILLER_11_101
*1245 FILLER_11_110
*1246 FILLER_11_113
*1247 FILLER_11_120
*1248 FILLER_11_129
*1249 FILLER_11_146
*1250 FILLER_11_166
*1251 FILLER_11_169
*1252 FILLER_11_181
*1253 FILLER_11_194
*1254 FILLER_11_201
*1255 FILLER_11_208
*1256 FILLER_11_21
*1257 FILLER_11_214
*1258 FILLER_11_221
*1259 FILLER_11_225
*1260 FILLER_11_243
*1261 FILLER_11_25
*1262 FILLER_11_250
*1263 FILLER_11_260
*1264 FILLER_11_272
*1265 FILLER_11_281
*1266 FILLER_11_290
*1267 FILLER_11_298
*1268 FILLER_11_3
*1269 FILLER_11_30
*1270 FILLER_11_37
*1271 FILLER_11_48
*1272 FILLER_11_57
*1273 FILLER_11_62
*1274 FILLER_11_70
*1275 FILLER_11_88
*1276 FILLER_12_103
*1277 FILLER_12_112
*1278 FILLER_12_118
*1279 FILLER_12_128
*1280 FILLER_12_136
*1281 FILLER_12_141
*1282 FILLER_12_159
*1283 FILLER_12_16
*1284 FILLER_12_171
*1285 FILLER_12_184
*1286 FILLER_12_194
*1287 FILLER_12_197
*1288 FILLER_12_20
*1289 FILLER_12_201
*1290 FILLER_12_218
*1291 FILLER_12_226
*1292 FILLER_12_237
*1293 FILLER_12_250
*1294 FILLER_12_253
*1295 FILLER_12_259
*1296 FILLER_12_26
*1297 FILLER_12_267
*1298 FILLER_12_274
*1299 FILLER_12_287
*1300 FILLER_12_29
*1301 FILLER_12_3
*1302 FILLER_12_37
*1303 FILLER_12_47
*1304 FILLER_12_68
*1305 FILLER_12_82
*1306 FILLER_12_85
*1307 FILLER_12_9
*1308 FILLER_13_110
*1309 FILLER_13_113
*1310 FILLER_13_133
*1311 FILLER_13_146
*1312 FILLER_13_154
*1313 FILLER_13_166
*1314 FILLER_13_169
*1315 FILLER_13_18
*1316 FILLER_13_187
*1317 FILLER_13_207
*1318 FILLER_13_220
*1319 FILLER_13_225
*1320 FILLER_13_238
*1321 FILLER_13_258
*1322 FILLER_13_269
*1323 FILLER_13_278
*1324 FILLER_13_281
*1325 FILLER_13_293
*1326 FILLER_13_3
*1327 FILLER_13_32
*1328 FILLER_13_41
*1329 FILLER_13_54
*1330 FILLER_13_57
*1331 FILLER_13_74
*1332 FILLER_13_89
*1333 FILLER_14_100
*1334 FILLER_14_115
*1335 FILLER_14_121
*1336 FILLER_14_138
*1337 FILLER_14_141
*1338 FILLER_14_146
*1339 FILLER_14_162
*1340 FILLER_14_173
*1341 FILLER_14_180
*1342 FILLER_14_188
*1343 FILLER_14_194
*1344 FILLER_14_197
*1345 FILLER_14_21
*1346 FILLER_14_211
*1347 FILLER_14_221
*1348 FILLER_14_236
*1349 FILLER_14_249
*1350 FILLER_14_253
*1351 FILLER_14_258
*1352 FILLER_14_27
*1353 FILLER_14_272
*1354 FILLER_14_29
*1355 FILLER_14_297
*1356 FILLER_14_3
*1357 FILLER_14_33
*1358 FILLER_14_40
*1359 FILLER_14_53
*1360 FILLER_14_63
*1361 FILLER_14_71
*1362 FILLER_14_80
*1363 FILLER_14_85
*1364 FILLER_14_92
*1365 FILLER_14_96
*1366 FILLER_15_103
*1367 FILLER_15_110
*1368 FILLER_15_113
*1369 FILLER_15_12
*1370 FILLER_15_122
*1371 FILLER_15_142
*1372 FILLER_15_154
*1373 FILLER_15_166
*1374 FILLER_15_169
*1375 FILLER_15_178
*1376 FILLER_15_18
*1377 FILLER_15_190
*1378 FILLER_15_198
*1379 FILLER_15_208
*1380 FILLER_15_219
*1381 FILLER_15_223
*1382 FILLER_15_225
*1383 FILLER_15_243
*1384 FILLER_15_263
*1385 FILLER_15_273
*1386 FILLER_15_279
*1387 FILLER_15_281
*1388 FILLER_15_288
*1389 FILLER_15_297
*1390 FILLER_15_3
*1391 FILLER_15_35
*1392 FILLER_15_43
*1393 FILLER_15_54
*1394 FILLER_15_57
*1395 FILLER_15_75
*1396 FILLER_15_8
*1397 FILLER_15_88
*1398 FILLER_16_105
*1399 FILLER_16_126
*1400 FILLER_16_133
*1401 FILLER_16_139
*1402 FILLER_16_141
*1403 FILLER_16_152
*1404 FILLER_16_156
*1405 FILLER_16_162
*1406 FILLER_16_173
*1407 FILLER_16_182
*1408 FILLER_16_19
*1409 FILLER_16_193
*1410 FILLER_16_197
*1411 FILLER_16_211
*1412 FILLER_16_228
*1413 FILLER_16_238
*1414 FILLER_16_245
*1415 FILLER_16_251
*1416 FILLER_16_253
*1417 FILLER_16_26
*1418 FILLER_16_271
*1419 FILLER_16_284
*1420 FILLER_16_29
*1421 FILLER_16_291
*1422 FILLER_16_3
*1423 FILLER_16_39
*1424 FILLER_16_62
*1425 FILLER_16_75
*1426 FILLER_16_83
*1427 FILLER_16_85
*1428 FILLER_16_9
*1429 FILLER_17_103
*1430 FILLER_17_110
*1431 FILLER_17_113
*1432 FILLER_17_122
*1433 FILLER_17_129
*1434 FILLER_17_147
*1435 FILLER_17_160
*1436 FILLER_17_169
*1437 FILLER_17_179
*1438 FILLER_17_188
*1439 FILLER_17_194
*1440 FILLER_17_202
*1441 FILLER_17_21
*1442 FILLER_17_210
*1443 FILLER_17_220
*1444 FILLER_17_225
*1445 FILLER_17_235
*1446 FILLER_17_243
*1447 FILLER_17_260
*1448 FILLER_17_273
*1449 FILLER_17_279
*1450 FILLER_17_281
*1451 FILLER_17_286
*1452 FILLER_17_293
*1453 FILLER_17_3
*1454 FILLER_17_33
*1455 FILLER_17_43
*1456 FILLER_17_47
*1457 FILLER_17_54
*1458 FILLER_17_57
*1459 FILLER_17_63
*1460 FILLER_17_70
*1461 FILLER_17_81
*1462 FILLER_17_90