*SPEF "ieee 1481-1999"
*DESIGN "tiny_fft"
*DATE "11:11:11 Fri 11 11, 1111"
*VENDOR "OpenRCX"
*PROGRAM "Parallel Extraction"
*VERSION "1.0"
*DESIGN_FLOW "NAME_SCOPE LOCAL" "PIN_CAP NONE"
*DIVIDER /
*DELIMITER :
*BUS_DELIMITER []
*T_UNIT 1 NS
*C_UNIT 1 PF
*R_UNIT 1 OHM
*L_UNIT 1 HENRY

*NAME_MAP
*1 io_in[0]
*2 io_in[1]
*3 io_in[2]
*4 io_in[3]
*5 io_in[4]
*6 io_in[5]
*7 io_in[6]
*8 io_in[7]
*9 io_out[0]
*10 io_out[1]
*11 io_out[2]
*12 io_out[3]
*13 io_out[4]
*14 io_out[5]
*15 io_out[6]
*16 io_out[7]
*19 _000_
*20 _001_
*21 _002_
*22 _003_
*23 _004_
*24 _005_
*25 _006_
*26 _007_
*27 _008_
*28 _009_
*29 _010_
*30 _011_
*31 _012_
*32 _013_
*33 _014_
*34 _015_
*35 _016_
*36 _017_
*37 _018_
*38 _019_
*39 _020_
*40 _021_
*41 _022_
*42 _023_
*43 _024_
*44 _025_
*45 _026_
*46 _027_
*47 _028_
*48 _029_
*49 _030_
*50 _031_
*51 _032_
*52 _033_
*53 _034_
*54 _035_
*55 _036_
*56 _037_
*57 _038_
*58 _039_
*59 _040_
*60 _041_
*61 _042_
*62 _043_
*63 _044_
*64 _045_
*65 _046_
*66 _047_
*67 _048_
*68 _049_
*69 _050_
*70 _051_
*71 _052_
*72 _053_
*73 _054_
*74 _055_
*75 _056_
*76 _057_
*77 _058_
*78 _059_
*79 _060_
*80 _061_
*81 _062_
*82 _063_
*83 _064_
*84 _065_
*85 _066_
*86 _067_
*87 _068_
*88 _069_
*89 _070_
*90 _071_
*91 _072_
*92 _073_
*93 _074_
*94 _075_
*95 _076_
*96 _077_
*97 _078_
*98 _079_
*99 _080_
*100 _081_
*101 _082_
*102 _083_
*103 _084_
*104 _085_
*105 _086_
*106 _087_
*107 _088_
*108 _089_
*109 _090_
*110 _091_
*111 _092_
*112 _093_
*113 _094_
*114 _095_
*115 _096_
*116 _097_
*117 _098_
*118 _099_
*119 _100_
*120 _101_
*121 _102_
*122 _103_
*123 _104_
*124 _105_
*125 _106_
*126 _107_
*127 _108_
*128 _109_
*129 _110_
*130 _111_
*131 _112_
*132 _113_
*133 _114_
*134 _115_
*135 _116_
*136 _117_
*137 _118_
*138 _119_
*139 _120_
*140 _121_
*141 _122_
*142 _123_
*143 _124_
*144 _125_
*145 _126_
*146 _127_
*147 _128_
*148 _129_
*149 _130_
*150 _131_
*151 _132_
*152 _133_
*153 _134_
*154 _135_
*155 _136_
*156 _137_
*157 _138_
*158 _139_
*159 _140_
*160 _141_
*161 _142_
*162 _143_
*163 _144_
*164 _145_
*165 _146_
*166 _147_
*167 _148_
*168 _149_
*169 _150_
*170 _151_
*171 _152_
*172 _153_
*173 _154_
*174 _155_
*175 _156_
*176 _157_
*177 _158_
*178 _159_
*179 _160_
*180 _161_
*181 _162_
*182 _163_
*183 _164_
*184 _165_
*185 _166_
*186 _167_
*187 clknet_0_io_in[0]
*188 clknet_1_0__leaf_io_in[0]
*189 clknet_1_1__leaf_io_in[0]
*190 input_reg\[0\]\[0\]
*191 input_reg\[0\]\[1\]
*192 input_reg\[0\]\[2\]
*193 input_reg\[0\]\[3\]
*194 input_reg\[1\]\[0\]
*195 input_reg\[1\]\[1\]
*196 input_reg\[1\]\[2\]
*197 input_reg\[1\]\[3\]
*198 input_reg\[2\]\[0\]
*199 input_reg\[2\]\[1\]
*200 input_reg\[2\]\[2\]
*201 input_reg\[2\]\[3\]
*202 input_reg\[3\]\[0\]
*203 input_reg\[3\]\[1\]
*204 input_reg\[3\]\[2\]
*205 input_reg\[3\]\[3\]
*206 net1
*207 net2
*208 net3
*209 net4
*210 net5
*211 net6
*212 rdIdx\[0\]
*213 rdIdx\[1\]
*214 rdIdx\[2\]
*215 wrIdx\[0\]
*216 wrIdx\[1\]
*217 FILLER_0_109
*218 FILLER_0_113
*219 FILLER_0_125
*220 FILLER_0_137
*221 FILLER_0_141
*222 FILLER_0_153
*223 FILLER_0_165
*224 FILLER_0_169
*225 FILLER_0_181
*226 FILLER_0_193
*227 FILLER_0_197
*228 FILLER_0_209
*229 FILLER_0_221
*230 FILLER_0_225
*231 FILLER_0_237
*232 FILLER_0_249
*233 FILLER_0_25
*234 FILLER_0_253
*235 FILLER_0_265
*236 FILLER_0_277
*237 FILLER_0_281
*238 FILLER_0_29
*239 FILLER_0_293
*240 FILLER_0_3
*241 FILLER_0_49
*242 FILLER_0_55
*243 FILLER_0_57
*244 FILLER_0_61
*245 FILLER_0_65
*246 FILLER_0_7
*247 FILLER_0_77
*248 FILLER_0_83
*249 FILLER_0_85
*250 FILLER_0_97
*251 FILLER_10_101
*252 FILLER_10_113
*253 FILLER_10_125
*254 FILLER_10_137
*255 FILLER_10_141
*256 FILLER_10_153
*257 FILLER_10_165
*258 FILLER_10_177
*259 FILLER_10_189
*260 FILLER_10_195
*261 FILLER_10_197
*262 FILLER_10_209
*263 FILLER_10_221
*264 FILLER_10_233
*265 FILLER_10_245
*266 FILLER_10_251
*267 FILLER_10_253
*268 FILLER_10_26
*269 FILLER_10_265
*270 FILLER_10_277
*271 FILLER_10_289
*272 FILLER_10_29
*273 FILLER_10_297
*274 FILLER_10_3
*275 FILLER_10_47
*276 FILLER_10_58
*277 FILLER_10_70
*278 FILLER_10_82
*279 FILLER_10_85
*280 FILLER_10_9
*281 FILLER_10_97
*282 FILLER_11_100
*283 FILLER_11_11
*284 FILLER_11_113
*285 FILLER_11_125
*286 FILLER_11_137
*287 FILLER_11_149
*288 FILLER_11_161
*289 FILLER_11_167
*290 FILLER_11_169
*291 FILLER_11_181
*292 FILLER_11_193
*293 FILLER_11_205
*294 FILLER_11_217
*295 FILLER_11_223
*296 FILLER_11_225
*297 FILLER_11_237
*298 FILLER_11_249
*299 FILLER_11_261
*300 FILLER_11_273
*301 FILLER_11_279
*302 FILLER_11_281
*303 FILLER_11_293
*304 FILLER_11_3
*305 FILLER_11_31
*306 FILLER_11_51
*307 FILLER_11_55
*308 FILLER_11_57
*309 FILLER_11_64
*310 FILLER_11_76
*311 FILLER_11_88
*312 FILLER_12_109
*313 FILLER_12_121
*314 FILLER_12_133
*315 FILLER_12_139
*316 FILLER_12_141
*317 FILLER_12_153
*318 FILLER_12_165
*319 FILLER_12_177
*320 FILLER_12_189
*321 FILLER_12_195
*322 FILLER_12_197
*323 FILLER_12_209
*324 FILLER_12_221
*325 FILLER_12_233
*326 FILLER_12_245
*327 FILLER_12_251
*328 FILLER_12_253
*329 FILLER_12_26
*330 FILLER_12_265
*331 FILLER_12_277
*332 FILLER_12_289
*333 FILLER_12_29
*334 FILLER_12_297
*335 FILLER_12_3
*336 FILLER_12_47
*337 FILLER_12_61
*338 FILLER_12_74
*339 FILLER_12_82
*340 FILLER_12_85
*341 FILLER_12_97
*342 FILLER_13_107
*343 FILLER_13_11
*344 FILLER_13_111
*345 FILLER_13_113
*346 FILLER_13_118
*347 FILLER_13_130
*348 FILLER_13_142
*349 FILLER_13_154
*350 FILLER_13_166
*351 FILLER_13_169
*352 FILLER_13_181
*353 FILLER_13_193
*354 FILLER_13_205
*355 FILLER_13_217
*356 FILLER_13_223
*357 FILLER_13_225
*358 FILLER_13_237
*359 FILLER_13_249
*360 FILLER_13_261
*361 FILLER_13_273
*362 FILLER_13_279
*363 FILLER_13_281
*364 FILLER_13_293
*365 FILLER_13_3
*366 FILLER_13_30
*367 FILLER_13_50
*368 FILLER_13_57
*369 FILLER_13_74
*370 FILLER_13_83
*371 FILLER_13_95
*372 FILLER_14_109
*373 FILLER_14_121
*374 FILLER_14_133
*375 FILLER_14_139
*376 FILLER_14_141
*377 FILLER_14_153
*378 FILLER_14_165
*379 FILLER_14_177
*380 FILLER_14_189
*381 FILLER_14_195
*382 FILLER_14_197
*383 FILLER_14_209
*384 FILLER_14_22
*385 FILLER_14_221
*386 FILLER_14_233
*387 FILLER_14_245
*388 FILLER_14_251
*389 FILLER_14_253
*390 FILLER_14_265
*391 FILLER_14_277
*392 FILLER_14_289
*393 FILLER_14_29
*394 FILLER_14_297
*395 FILLER_14_3
*396 FILLER_14_47
*397 FILLER_14_51
*398 FILLER_14_55
*399 FILLER_14_67
*400 FILLER_14_79
*401 FILLER_14_83
*402 FILLER_14_85
*403 FILLER_14_97
*404 FILLER_15_104
*405 FILLER_15_113
*406 FILLER_15_125
*407 FILLER_15_137
*408 FILLER_15_149
*409 FILLER_15_15
*410 FILLER_15_161
*411 FILLER_15_167
*412 FILLER_15_169
*413 FILLER_15_181
*414 FILLER_15_193
*415 FILLER_15_205
*416 FILLER_15_217
*417 FILLER_15_22
*418 FILLER_15_223
*419 FILLER_15_225
*420 FILLER_15_237
*421 FILLER_15_249
*422 FILLER_15_261
*423 FILLER_15_273
*424 FILLER_15_279
*425 FILLER_15_281
*426 FILLER_15_293
*427 FILLER_15_3
*428 FILLER_15_30
*429 FILLER_15_54
*430 FILLER_15_57
*431 FILLER_15_68
*432 FILLER_15_8
*433 FILLER_15_80
*434 FILLER_15_92
*435 FILLER_16_109
*436 FILLER_16_121
*437 FILLER_16_133
*438 FILLER_16_139
*439 FILLER_16_141
*440 FILLER_16_15
*441 FILLER_16_153
*442 FILLER_16_165
*443 FILLER_16_177
*444 FILLER_16_189
*445 FILLER_16_195
*446 FILLER_16_197
*447 FILLER_16_209
*448 FILLER_16_221
*449 FILLER_16_233
*450 FILLER_16_245
*451 FILLER_16_25
*452 FILLER_16_251
*453 FILLER_16_253
*454 FILLER_16_265
*455 FILLER_16_277
*456 FILLER_16_289
*457 FILLER_16_29
*458 FILLER_16_297
*459 FILLER_16_3
*460 FILLER_16_34
*461 FILLER_16_38
*462 FILLER_16_48
*463 FILLER_16_59
*464 FILLER_16_71
*465 FILLER_16_77
*466 FILLER_16_83
*467 FILLER_16_85
*468 FILLER_16_97
*469 FILLER_17_103
*470 FILLER_17_111
*471 FILLER_17_113
*472 FILLER_17_12
*473 FILLER_17_125
*474 FILLER_17_137
*475 FILLER_17_149
*476 FILLER_17_161
*477 FILLER_17_167
*478 FILLER_17_169
*479 FILLER_17_181
*480 FILLER_17_193
*481 FILLER_17_205
*482 FILLER_17_217
*483 FILLER_17_22
*484 FILLER_17_223
*485 FILLER_17_225
*486 FILLER_17_237
*487 FILLER_17_249
*488 FILLER_17_26
*489 FILLER_17_261
*490 FILLER_17_273
*491 FILLER_17_279
*492 FILLER_17_281
*493 FILLER_17_293
*494 FILLER_17_3
*495 FILLER_17_34
*496 FILLER_17_41
*497 FILLER_17_45
*498 FILLER_17_50
*499 FILLER_17_57
*500 FILLER_17_69
*501 FILLER_17_8
*502 FILLER_17_81
*503 FILLER_17_91
*504 FILLER_18_104
*505 FILLER_18_116
*506 FILLER_18_128
*507 FILLER_18_141
*508 FILLER_18_153
*509 FILLER_18_165
*510 FILLER_18_17
*511 FILLER_18_177
*512 FILLER_18_189
*513 FILLER_18_195
*514 FILLER_18_197
*515 FILLER_18_209
*516 FILLER_18_221
*517 FILLER_18_233
*518 FILLER_18_24
*519 FILLER_18_245
*520 FILLER_18_251
*521 FILLER_18_253
*522 FILLER_18_265
*523 FILLER_18_277
*524 FILLER_18_289
*525 FILLER_18_29
*526 FILLER_18_297
*527 FILLER_18_3
*528 FILLER_18_39
*529 FILLER_18_49
*530 FILLER_18_61
*531 FILLER_18_7
*532 FILLER_18_73
*533 FILLER_18_81
*534 FILLER_18_85
*535 FILLER_18_92
*536 FILLER_19_111
*537 FILLER_19_113
*538 FILLER_19_125
*539 FILLER_19_137
*540 FILLER_19_14
*541 FILLER_19_149
*542 FILLER_19_161
*543 FILLER_19_167
*544 FILLER_19_169
*545 FILLER_19_181
*546 FILLER_19_193
*547 FILLER_19_205
*548 FILLER_19_217
*549 FILLER_19_22
*550 FILLER_19_223
*551 FILLER_19_225
*552 FILLER_19_237
*553 FILLER_19_249
*554 FILLER_19_261
*555 FILLER_19_273
*556 FILLER_19_279
*557 FILLER_19_281
*558 FILLER_19_293
*559 FILLER_19_3
*560 FILLER_19_32
*561 FILLER_19_38
*562 FILLER_19_46
*563 FILLER_19_50
*564 FILLER_19_54
*565 FILLER_19_57
*566 FILLER_19_63
*567 FILLER_19_75
*568 FILLER_19_87
*569 FILLER_19_99
*570 FILLER_1_104
*571 FILLER_1_113
*572 FILLER_1_125
*573 FILLER_1_137
*574 FILLER_1_149
*575 FILLER_1_161
*576 FILLER_1_167
*577 FILLER_1_169
*578 FILLER_1_181
*579 FILLER_1_193
*580 FILLER_1_205
*581 FILLER_1_217
*582 FILLER_1_223
*583 FILLER_1_225
*584 FILLER_1_237
*585 FILLER_1_249
*586 FILLER_1_26
*587 FILLER_1_261
*588 FILLER_1_273
*589 FILLER_1_279
*590 FILLER_1_281
*591 FILLER_1_293
*592 FILLER_1_3
*593 FILLER_1_47
*594 FILLER_1_55
*595 FILLER_1_57
*596 FILLER_1_68
*597 FILLER_1_80
*598 FILLER_1_92
*599 FILLER_20_109
*600 FILLER_20_121
*601 FILLER_20_133
*602 FILLER_20_139
*603 FILLER_20_141
*604 FILLER_20_15
*605 FILLER_20_153
*606 FILLER_20_165
*607 FILLER_20_177
*608 FILLER_20_189
*609 FILLER_20_195
*610 FILLER_20_197
*611 FILLER_20_209
*612 FILLER_20_221
*613 FILLER_20_233
*614 FILLER_20_24
*615 FILLER_20_245
*616 FILLER_20_251
*617 FILLER_20_253
*618 FILLER_20_265
*619 FILLER_20_277
*620 FILLER_20_289
*621 FILLER_20_29
*622 FILLER_20_297
*623 FILLER_20_3
*624 FILLER_20_34
*625 FILLER_20_41
*626 FILLER_20_45
*627 FILLER_20_59
*628 FILLER_20_67
*629 FILLER_20_77
*630 FILLER_20_83
*631 FILLER_20_85
*632 FILLER_20_97
*633 FILLER_21_105
*634 FILLER_21_111
*635 FILLER_21_113
*636 FILLER_21_12
*637 FILLER_21_125
*638 FILLER_21_137
*639 FILLER_21_148
*640 FILLER_21_160
*641 FILLER_21_169
*642 FILLER_21_181
*643 FILLER_21_193
*644 FILLER_21_205
*645 FILLER_21_217
*646 FILLER_21_223
*647 FILLER_21_225
*648 FILLER_21_237
*649 FILLER_21_249
*650 FILLER_21_25
*651 FILLER_21_261
*652 FILLER_21_273
*653 FILLER_21_279
*654 FILLER_21_281
*655 FILLER_21_293
*656 FILLER_21_3
*657 FILLER_21_39
*658 FILLER_21_47
*659 FILLER_21_54
*660 FILLER_21_57
*661 FILLER_21_69
*662 FILLER_21_81
*663 FILLER_21_93
*664 FILLER_22_109
*665 FILLER_22_121
*666 FILLER_22_133
*667 FILLER_22_139
*668 FILLER_22_14
*669 FILLER_22_141
*670 FILLER_22_153
*671 FILLER_22_165
*672 FILLER_22_177
*673 FILLER_22_189
*674 FILLER_22_195
*675 FILLER_22_197
*676 FILLER_22_209
*677 FILLER_22_221
*678 FILLER_22_233
*679 FILLER_22_24
*680 FILLER_22_245
*681 FILLER_22_251
*682 FILLER_22_253
*683 FILLER_22_265
*684 FILLER_22_277
*685 FILLER_22_289
*686 FILLER_22_29
*687 FILLER_22_297
*688 FILLER_22_3
*689 FILLER_22_35
*690 FILLER_22_44
*691 FILLER_22_53
*692 FILLER_22_61
*693 FILLER_22_70
*694 FILLER_22_82
*695 FILLER_22_85
*696 FILLER_22_97
*697 FILLER_23_105
*698 FILLER_23_111
*699 FILLER_23_113
*700 FILLER_23_125
*701 FILLER_23_13
*702 FILLER_23_137
*703 FILLER_23_149
*704 FILLER_23_161
*705 FILLER_23_167
*706 FILLER_23_169
*707 FILLER_23_181
*708 FILLER_23_193
*709 FILLER_23_205
*710 FILLER_23_217
*711 FILLER_23_223
*712 FILLER_23_225
*713 FILLER_23_23
*714 FILLER_23_237
*715 FILLER_23_249
*716 FILLER_23_261
*717 FILLER_23_273
*718 FILLER_23_279
*719 FILLER_23_281
*720 FILLER_23_293
*721 FILLER_23_3
*722 FILLER_23_33
*723 FILLER_23_40
*724 FILLER_23_52
*725 FILLER_23_57
*726 FILLER_23_63
*727 FILLER_23_69
*728 FILLER_23_81
*729 FILLER_23_93
*730 FILLER_24_112
*731 FILLER_24_124
*732 FILLER_24_136
*733 FILLER_24_141
*734 FILLER_24_15
*735 FILLER_24_153
*736 FILLER_24_165
*737 FILLER_24_177
*738 FILLER_24_189
*739 FILLER_24_195
*740 FILLER_24_197
*741 FILLER_24_209
*742 FILLER_24_221
*743 FILLER_24_233
*744 FILLER_24_245
*745 FILLER_24_251
*746 FILLER_24_253
*747 FILLER_24_26
*748 FILLER_24_265
*749 FILLER_24_277
*750 FILLER_24_289
*751 FILLER_24_29
*752 FILLER_24_297
*753 FILLER_24_3
*754 FILLER_24_36
*755 FILLER_24_40
*756 FILLER_24_47
*757 FILLER_24_54
*758 FILLER_24_62
*759 FILLER_24_72
*760 FILLER_24_81
*761 FILLER_24_85
*762 FILLER_24_97
*763 FILLER_25_10
*764 FILLER_25_104
*765 FILLER_25_113
*766 FILLER_25_125
*767 FILLER_25_137
*768 FILLER_25_149
*769 FILLER_25_161
*770 FILLER_25_167
*771 FILLER_25_169
*772 FILLER_25_181
*773 FILLER_25_193
*774 FILLER_25_205
*775 FILLER_25_217
*776 FILLER_25_223
*777 FILLER_25_225
*778 FILLER_25_237
*779 FILLER_25_249
*780 FILLER_25_261
*781 FILLER_25_273
*782 FILLER_25_279
*783 FILLER_25_281
*784 FILLER_25_293
*785 FILLER_25_3
*786 FILLER_25_36
*787 FILLER_25_47
*788 FILLER_25_54
*789 FILLER_25_57
*790 FILLER_25_69
*791 FILLER_25_81
*792 FILLER_25_92
*793 FILLER_26_106
*794 FILLER_26_118
*795 FILLER_26_130
*796 FILLER_26_138
*797 FILLER_26_141
*798 FILLER_26_153
*799 FILLER_26_165
*800 FILLER_26_177
*801 FILLER_26_189
*802 FILLER_26_195
*803 FILLER_26_197
*804 FILLER_26_209
*805 FILLER_26_21
*806 FILLER_26_221
*807 FILLER_26_233
*808 FILLER_26_245
*809 FILLER_26_25
*810 FILLER_26_251
*811 FILLER_26_253
*812 FILLER_26_265
*813 FILLER_26_277
*814 FILLER_26_289
*815 FILLER_26_29
*816 FILLER_26_297
*817 FILLER_26_3
*818 FILLER_26_37
*819 FILLER_26_45
*820 FILLER_26_68
*821 FILLER_26_76
*822 FILLER_26_82
*823 FILLER_26_85
*824 FILLER_26_9
*825 FILLER_26_94
*826 FILLER_27_110
*827 FILLER_27_113
*828 FILLER_27_125
*829 FILLER_27_137
*830 FILLER_27_149
*831 FILLER_27_15
*832 FILLER_27_161
*833 FILLER_27_167
*834 FILLER_27_169
*835 FILLER_27_181
*836 FILLER_27_193
*837 FILLER_27_205
*838 FILLER_27_217
*839 FILLER_27_223
*840 FILLER_27_225
*841 FILLER_27_237
*842 FILLER_27_249
*843 FILLER_27_261
*844 FILLER_27_273
*845 FILLER_27_279
*846 FILLER_27_28
*847 FILLER_27_281
*848 FILLER_27_293
*849 FILLER_27_3
*850 FILLER_27_54
*851 FILLER_27_57
*852 FILLER_27_76
*853 FILLER_27_84
*854 FILLER_27_95
*855 FILLER_28_109
*856 FILLER_28_121
*857 FILLER_28_133
*858 FILLER_28_139
*859 FILLER_28_141
*860 FILLER_28_153
*861 FILLER_28_165
*862 FILLER_28_177
*863 FILLER_28_18
*864 FILLER_28_189
*865 FILLER_28_195
*866 FILLER_28_197
*867 FILLER_28_209
*868 FILLER_28_22
*869 FILLER_28_221
*870 FILLER_28_233
*871 FILLER_28_245
*872 FILLER_28_251
*873 FILLER_28_253
*874 FILLER_28_26
*875 FILLER_28_265
*876 FILLER_28_277
*877 FILLER_28_289
*878 FILLER_28_29
*879 FILLER_28_297
*880 FILLER_28_3
*881 FILLER_28_35
*882 FILLER_28_43
*883 FILLER_28_58
*884 FILLER_28_66
*885 FILLER_28_74
*886 FILLER_28_82
*887 FILLER_28_85
*888 FILLER_28_97
*889 FILLER_29_10
*890 FILLER_29_111
*891 FILLER_29_113
*892 FILLER_29_125
*893 FILLER_29_137
*894 FILLER_29_149
*895 FILLER_29_161
*896 FILLER_29_167
*897 FILLER_29_169
*898 FILLER_29_181
*899 FILLER_29_193
*900 FILLER_29_205
*901 FILLER_29_217
*902 FILLER_29_223
*903 FILLER_29_225
*904 FILLER_29_23
*905 FILLER_29_237
*906 FILLER_29_249
*907 FILLER_29_261
*908 FILLER_29_273
*909 FILLER_29_279
*910 FILLER_29_281
*911 FILLER_29_293
*912 FILLER_29_3
*913 FILLER_29_36
*914 FILLER_29_42
*915 FILLER_29_50
*916 FILLER_29_57
*917 FILLER_29_62
*918 FILLER_29_68
*919 FILLER_29_75
*920 FILLER_29_87
*921 FILLER_29_99
*922 FILLER_2_109
*923 FILLER_2_121
*924 FILLER_2_133
*925 FILLER_2_139
*926 FILLER_2_141
*927 FILLER_2_153
*928 FILLER_2_165
*929 FILLER_2_177
*930 FILLER_2_189
*931 FILLER_2_195
*932 FILLER_2_197
*933 FILLER_2_209
*934 FILLER_2_221
*935 FILLER_2_233
*936 FILLER_2_245
*937 FILLER_2_251
*938 FILLER_2_253
*939 FILLER_2_26
*940 FILLER_2_265
*941 FILLER_2_277
*942 FILLER_2_289
*943 FILLER_2_29
*944 FILLER_2_297
*945 FILLER_2_3
*946 FILLER_2_47
*947 FILLER_2_54
*948 FILLER_2_65
*949 FILLER_2_77
*950 FILLER_2_83
*951 FILLER_2_85
*952 FILLER_2_97
*953 FILLER_30_109
*954 FILLER_30_121
*955 FILLER_30_133
*956 FILLER_30_139
*957 FILLER_30_141
*958 FILLER_30_153
*959 FILLER_30_165
*960 FILLER_30_177
*961 FILLER_30_189
*962 FILLER_30_195
*963 FILLER_30_197
*964 FILLER_30_20
*965 FILLER_30_209
*966 FILLER_30_221
*967 FILLER_30_233
*968 FILLER_30_245
*969 FILLER_30_251
*970 FILLER_30_253
*971 FILLER_30_265
*972 FILLER_30_277
*973 FILLER_30_289
*974 FILLER_30_29
*975 FILLER_30_297
*976 FILLER_30_3
*977 FILLER_30_37
*978 FILLER_30_49
*979 FILLER_30_54
*980 FILLER_30_8
*981 FILLER_30_80
*982 FILLER_30_85
*983 FILLER_30_97
*984 FILLER_31_110
*985 FILLER_31_113
*986 FILLER_31_12
*987 FILLER_31_125
*988 FILLER_31_137
*989 FILLER_31_149
*990 FILLER_31_161
*991 FILLER_31_167
*992 FILLER_31_169
*993 FILLER_31_181
*994 FILLER_31_193
*995 FILLER_31_205
*996 FILLER_31_217
*997 FILLER_31_223
*998 FILLER_31_225
*999 FILLER_31_237
*1000 FILLER_31_24
*1001 FILLER_31_249
*1002 FILLER_31_261
*1003 FILLER_31_273
*1004 FILLER_31_279
*1005 FILLER_31_281
*1006 FILLER_31_293
*1007 FILLER_31_3
*1008 FILLER_31_31
*1009 FILLER_31_39
*1010 FILLER_31_52
*1011 FILLER_31_57
*1012 FILLER_31_87
*1013 FILLER_31_98
*1014 FILLER_32_109
*1015 FILLER_32_121
*1016 FILLER_32_133
*1017 FILLER_32_139
*1018 FILLER_32_141
*1019 FILLER_32_15
*1020 FILLER_32_153
*1021 FILLER_32_165
*1022 FILLER_32_177
*1023 FILLER_32_189
*1024 FILLER_32_19
*1025 FILLER_32_195
*1026 FILLER_32_197
*1027 FILLER_32_209
*1028 FILLER_32_221
*1029 FILLER_32_233
*1030 FILLER_32_245
*1031 FILLER_32_25
*1032 FILLER_32_251
*1033 FILLER_32_253
*1034 FILLER_32_265
*1035 FILLER_32_277
*1036 FILLER_32_289
*1037 FILLER_32_29
*1038 FILLER_32_297
*1039 FILLER_32_3
*1040 FILLER_32_41
*1041 FILLER_32_58
*1042 FILLER_32_70
*1043 FILLER_32_82
*1044 FILLER_32_85
*1045 FILLER_32_97
*1046 FILLER_33_111
*1047 FILLER_33_113
*1048 FILLER_33_125
*1049 FILLER_33_137
*1050 FILLER_33_14
*1051 FILLER_33_149
*1052 FILLER_33_161
*1053 FILLER_33_167
*1054 FILLER_33_169
*1055 FILLER_33_181
*1056 FILLER_33_193
*1057 FILLER_33_205
*1058 FILLER_33_217
*1059 FILLER_33_223
*1060 FILLER_33_225
*1061 FILLER_33_237
*1062 FILLER_33_249
*1063 FILLER_33_261
*1064 FILLER_33_273
*1065 FILLER_33_279
*1066 FILLER_33_281
*1067 FILLER_33_293
*1068 FILLER_33_3
*1069 FILLER_33_33
*1070 FILLER_33_42
*1071 FILLER_33_54
*1072 FILLER_33_57
*1073 FILLER_33_65
*1074 FILLER_33_75
*1075 FILLER_33_87
*1076 FILLER_33_99
*1077 FILLER_34_102
*1078 FILLER_34_114
*1079 FILLER_34_126
*1080 FILLER_34_138
*1081 FILLER_34_141
*1082 FILLER_34_153
*1083 FILLER_34_165
*1084 FILLER_34_17
*1085 FILLER_34_177
*1086 FILLER_34_189
*1087 FILLER_34_195
*1088 FILLER_34_197
*1089 FILLER_34_209
*1090 FILLER_34_221
*1091 FILLER_34_233
*1092 FILLER_34_245
*1093 FILLER_34_25
*1094 FILLER_34_251
*1095 FILLER_34_253
*1096 FILLER_34_265
*1097 FILLER_34_277
*1098 FILLER_34_289
*1099 FILLER_34_29
*1100 FILLER_34_297
*1101 FILLER_34_3
*1102 FILLER_34_41
*1103 FILLER_34_47
*1104 FILLER_34_55
*1105 FILLER_34_59
*1106 FILLER_34_71
*1107 FILLER_34_83
*1108 FILLER_34_85
*1109 FILLER_34_90
*1110 FILLER_35_108
*1111 FILLER_35_113
*1112 FILLER_35_125
*1113 FILLER_35_13
*1114 FILLER_35_137
*1115 FILLER_35_149
*1116 FILLER_35_161
*1117 FILLER_35_167
*1118 FILLER_35_169
*1119 FILLER_35_181
*1120 FILLER_35_19
*1121 FILLER_35_193
*1122 FILLER_35_205
*1123 FILLER_35_217
*1124 FILLER_35_223
*1125 FILLER_35_225
*1126 FILLER_35_237
*1127 FILLER_35_249
*1128 FILLER_35_261
*1129 FILLER_35_27
*1130 FILLER_35_273
*1131 FILLER_35_279
*1132 FILLER_35_281
*1133 FILLER_35_293
*1134 FILLER_35_3
*1135 FILLER_35_35
*1136 FILLER_35_45
*1137 FILLER_35_54
*1138 FILLER_35_57
*1139 FILLER_35_68
*1140 FILLER_35_96
*1141 FILLER_36_109
*1142 FILLER_36_11
*1143 FILLER_36_121
*1144 FILLER_36_133
*1145 FILLER_36_139
*1146 FILLER_36_141
*1147 FILLER_36_153
*1148 FILLER_36_165
*1149 FILLER_36_177
*1150 FILLER_36_189
*1151 FILLER_36_195
*1152 FILLER_36_197
*1153 FILLER_36_209
*1154 FILLER_36_221
*1155 FILLER_36_233
*1156 FILLER_36_245
*1157 FILLER_36_251
*1158 FILLER_36_253
*1159 FILLER_36_26
*1160 FILLER_36_265
*1161 FILLER_36_277
*1162 FILLER_36_289
*1163 FILLER_36_29
*1164 FILLER_36_297
*1165 FILLER_36_3
*1166 FILLER_36_41
*1167 FILLER_36_60
*1168 FILLER_36_72
*1169 FILLER_36_85
*1170 FILLER_36_97
*1171 FILLER_37_104
*1172 FILLER_37_113
*1173 FILLER_37_125
*1174 FILLER_37_137
*1175 FILLER_37_149
*1176 FILLER_37_161
*1177 FILLER_37_167
*1178 FILLER_37_169
*1179 FILLER_37_181
*1180 FILLER_37_193
*1181 FILLER_37_20
*1182 FILLER_37_205
*1183 FILLER_37_217
*1184 FILLER_37_223
*1185 FILLER_37_225
*1186 FILLER_37_237
*1187 FILLER_37_249
*1188 FILLER_37_261
*1189 FILLER_37_273
*1190 FILLER_37_279
*1191 FILLER_37_281
*1192 FILLER_37_293
*1193 FILLER_37_3
*1194 FILLER_37_32
*1195 FILLER_37_44
*1196 FILLER_37_48
*1197 FILLER_37_57
*1198 FILLER_37_63
*1199 FILLER_37_69
*1200 FILLER_37_92
*1201 FILLER_38_109
*1202 FILLER_38_12
*1203 FILLER_38_121
*1204 FILLER_38_133
*1205 FILLER_38_139
*1206 FILLER_38_141
*1207 FILLER_38_153
*1208 FILLER_38_165
*1209 FILLER_38_177
*1210 FILLER_38_189
*1211 FILLER_38_195
*1212 FILLER_38_197
*1213 FILLER_38_209
*1214 FILLER_38_22
*1215 FILLER_38_221
*1216 FILLER_38_233
*1217 FILLER_38_245
*1218 FILLER_38_251
*1219 FILLER_38_253
*1220 FILLER_38_265
*1221 FILLER_38_277
*1222 FILLER_38_289
*1223 FILLER_38_29
*1224 FILLER_38_297
*1225 FILLER_38_3
*1226 FILLER_38_35
*1227 FILLER_38_41
*1228 FILLER_38_47
*1229 FILLER_38_52
*1230 FILLER_38_64
*1231 FILLER_38_76
*1232 FILLER_38_85
*1233 FILLER_38_97
*1234 FILLER_39_105
*1235 FILLER_39_11
*1236 FILLER_39_111
*1237 FILLER_39_113
*1238 FILLER_39_125
*1239 FILLER_39_137
*1240 FILLER_39_149
*1241 FILLER_39_161
*1242 FILLER_39_167
*1243 FILLER_39_169
*1244 FILLER_39_181
*1245 FILLER_39_193
*1246 FILLER_39_205
*1247 FILLER_39_21
*1248 FILLER_39_217
*1249 FILLER_39_223
*1250 FILLER_39_225
*1251 FILLER_39_237
*1252 FILLER_39_249
*1253 FILLER_39_261
*1254 FILLER_39_273
*1255 FILLER_39_279
*1256 FILLER_39_281
*1257 FILLER_39_29
*1258 FILLER_39_293
*1259 FILLER_39_3
*1260 FILLER_39_40
*1261 FILLER_39_52
*1262 FILLER_39_57
*1263 FILLER_39_69
*1264 FILLER_39_81
*1265 FILLER_39_93
*1266 FILLER_3_105
*1267 FILLER_3_111
*1268 FILLER_3_113
*1269 FILLER_3_125
*1270 FILLER_3_137
*1271 FILLER_3_149
*1272 FILLER_3_15
*1273 FILLER_3_161
*1274 FILLER_3_167
*1275 FILLER_3_169
*1276 FILLER_3_181
*1277 FILLER_3_193
*1278 FILLER_3_205
*1279 FILLER_3_217
*1280 FILLER_3_223
*1281 FILLER_3_225
*1282 FILLER_3_237
*1283 FILLER_3_249
*1284 FILLER_3_261
*1285 FILLER_3_273
*1286 FILLER_3_279
*1287 FILLER_3_281
*1288 FILLER_3_293
*1289 FILLER_3_3
*1290 FILLER_3_36
*1291 FILLER_3_48
*1292 FILLER_3_57
*1293 FILLER_3_69
*1294 FILLER_3_81
*1295 FILLER_3_9
*1296 FILLER_3_93
*1297 FILLER_40_109
*1298 FILLER_40_121
*1299 FILLER_40_133
*1300 FILLER_40_139
*1301 FILLER_40_14
*1302 FILLER_40_141
*1303 FILLER_40_153
*1304 FILLER_40_165
*1305 FILLER_40_177
*1306 FILLER_40_189
*1307 FILLER_40_195
*1308 FILLER_40_197
*1309 FILLER_40_209
*1310 FILLER_40_221
*1311 FILLER_40_233
*1312 FILLER_40_245
*1313 FILLER_40_251
*1314 FILLER_40_253
*1315 FILLER_40_26
*1316 FILLER_40_265
*1317 FILLER_40_277
*1318 FILLER_40_289
*1319 FILLER_40_29
*1320 FILLER_40_297
*1321 FILLER_40_3
*1322 FILLER_40_39
*1323 FILLER_40_51
*1324 FILLER_40_59
*1325 FILLER_40_65
*1326 FILLER_40_77
*1327 FILLER_40_83
*1328 FILLER_40_85
*1329 FILLER_40_97
*1330 FILLER_41_105
*1331 FILLER_41_111
*1332 FILLER_41_113
*1333 FILLER_41_125
*1334 FILLER_41_137
*1335 FILLER_41_149
*1336 FILLER_41_15
*1337 FILLER_41_161
*1338 FILLER_41_167
*1339 FILLER_41_169
*1340 FILLER_41_181
*1341 FILLER_41_193
*1342 FILLER_41_205
*1343 FILLER_41_217
*1344 FILLER_41_223
*1345 FILLER_41_225
*1346 FILLER_41_237
*1347 FILLER_41_249
*1348 FILLER_41_261
*1349 FILLER_41_27
*1350 FILLER_41_273
*1351 FILLER_41_279
*1352 FILLER_41_281
*1353 FILLER_41_293
*1354 FILLER_41_3
*1355 FILLER_41_39
*1356 FILLER_41_46
*1357 FILLER_41_54
*1358 FILLER_41_57
*1359 FILLER_41_69
*1360 FILLER_41_81
*1361 FILLER_41_93
*1362 FILLER_42_109
*1363 FILLER_42_121
*1364 FILLER_42_133
*1365 FILLER_42_139
*1366 FILLER_42_141
*1367 FILLER_42_15
*1368 FILLER_42_153
*1369 FILLER_42_165
*1370 FILLER_42_177
*1371 FILLER_42_189
*1372 FILLER_42_195
*1373 FILLER_42_197
*1374 FILLER_42_209
*1375 FILLER_42_221
*1376 FILLER_42_233
*1377 FILLER_42_245
*1378 FILLER_42_251
*1379 FILLER_42_253
*1380 FILLER_42_265
*1381 FILLER_42_27
*1382 FILLER_42_277
*1383 FILLER_42_289
*1384 FILLER_42_29
*1385 FILLER_42_297
*1386 FILLER_42_3
*1387 FILLER_42_35
*1388 FILLER_42_53
*1389 FILLER_42_65
*1390 FILLER_42_77
*1391 FILLER_42_83
*1392 FILLER_42_85
*1393 FILLER_42_97
*1394 FILLER_43_111
*1395 FILLER_43_113
*1396 FILLER_43_12
*1397 FILLER_43_125
*1398 FILLER_43_137
*1399 FILLER_43_149
*1400 FILLER_43_161
*1401 FILLER_43_167
*1402 FILLER_43_169
*1403 FILLER_43_181
*1404 FILLER_43_193
*1405 FILLER_43_205
*1406 FILLER_43_217
*1407 FILLER_43_223
*1408 FILLER_43_225
*1409 FILLER_43_23
*1410 FILLER_43_237
*1411 FILLER_43_249
*1412 FILLER_43_261
*1413 FILLER_43_273
*1414 FILLER_43_279
*1415 FILLER_43_281
*1416 FILLER_43_293
*1417 FILLER_43_3
*1418 FILLER_43_35
*1419 FILLER_43_41
*1420 FILLER_43_53
*1421 FILLER_43_57
*1422 FILLER_43_65
*1423 FILLER_43_77
*1424 FILLER_43_89
*1425 FILLER_43_93
*1426 FILLER_43_99
*1427 FILLER_44_109
*1428 FILLER_44_121
*1429 FILLER_44_133
*1430 FILLER_44_139
*1431 FILLER_44_141
*1432 FILLER_44_15
*1433 FILLER_44_153
*1434 FILLER_44_165
*1435 FILLER_44_177
*1436 FILLER_44_189
*1437 FILLER_44_195
*1438 FILLER_44_197
*1439 FILLER_44_209
*1440 FILLER_44_221
*1441 FILLER_44_233
*1442 FILLER_44_245
*1443 FILLER_44_251
*1444 FILLER_44_253
*1445 FILLER_44_265
*1446 FILLER_44_27
*1447 FILLER_44_277
*1448 FILLER_44_289
*1449 FILLER_44_29
*1450 FILLER_44_297
*1451 FILLER_44_3
*1452 FILLER_44_36
*1453 FILLER_44_42
*1454 FILLER_44_65
*1455 FILLER_44_77
*1456 FILLER_44_83
*1457 FILLER_44_85
*1458 FILLER_44_97
*1459 FILLER_45_100
*1460 FILLER_45_113
*1461 FILLER_45_125
*1462 FILLER_45_137
*1463 FILLER_45_149
*1464 FILLER_45_15
*1465 FILLER_45_161
*1466 FILLER_45_167
*1467 FILLER_45_169
*1468 FILLER_45_181
*1469 FILLER_45_193
*1470 FILLER_45_205
*1471 FILLER_45_217
*1472 FILLER_45_223
*1473 FILLER_45_225
*1474 FILLER_45_237
*1475 FILLER_45_249
*1476 FILLER_45_261
*1477 FILLER_45_27
*1478 FILLER_45_273
*1479 FILLER_45_279
*1480 FILLER_45_281
*1481 FILLER_45_293
*1482 FILLER_45_3
*1483 FILLER_45_31
*1484 FILLER_45_36
*1485 FILLER_45_48
*1486 FILLER_45_57
*1487 FILLER_45_69
*1488 FILLER_45_76
*1489 FILLER_45_88
*1490 FILLER_46_109
*1491 FILLER_46_121
*1492 FILLER_46_133
*1493 FILLER_46_139
*1494 FILLER_46_141
*1495 FILLER_46_15
*1496 FILLER_46_153
*1497 FILLER_46_165
*1498 FILLER_46_177
*1499 FILLER_46_189
*1500 FILLER_46_195
*1501 FILLER_46_197
*1502 FILLER_46_209
*1503 FILLER_46_221
*1504 FILLER_46_233
*1505 FILLER_46_245
*1506 FILLER_46_251
*1507 FILLER_46_253
*1508 FILLER_46_265
*1509 FILLER_46_27
*1510 FILLER_46_277
*1511 FILLER_46_289
*1512 FILLER_46_29
*1513 FILLER_46_297
*1514 FILLER_46_3
*1515 FILLER_46_33
*1516 FILLER_46_52
*1517 FILLER_46_64
*1518 FILLER_46_76
*1519 FILLER_46_85
*1520 FILLER_46_97
*1521 FILLER_47_105
*1522 FILLER_47_111
*1523 FILLER_47_113
*1524 FILLER_47_125
*1525 FILLER_47_137
*1526 FILLER_47_149
*1527 FILLER_47_15
*1528 FILLER_47_161
*1529 FILLER_47_167
*1530 FILLER_47_169
*1531 FILLER_47_181
*1532 FILLER_47_193
*1533 FILLER_47_205
*1534 FILLER_47_217
*1535 FILLER_47_223
*1536 FILLER_47_225
*1537 FILLER_47_237
*1538 FILLER_47_249
*1539 FILLER_47_261
*1540 FILLER_47_27
*1541 FILLER_47_273
*1542 FILLER_47_279
*1543 FILLER_47_281
*1544 FILLER_47_293
*1545 FILLER_47_3
*1546 FILLER_47_39
*1547 FILLER_47_51
*1548 FILLER_47_55
*1549 FILLER_47_57
*1550 FILLER_47_69
*1551 FILLER_47_81
*1552 FILLER_47_93
*1553 FILLER_48_109
*1554 FILLER_48_121
*1555 FILLER_48_133
*1556 FILLER_48_139
*1557 FILLER_48_141
*1558 FILLER_48_15
*1559 FILLER_48_153
*1560 FILLER_48_165
*1561 FILLER_48_177
*1562 FILLER_48_189
*1563 FILLER_48_195
*1564 FILLER_48_197
*1565 FILLER_48_209
*1566 FILLER_48_221
*1567 FILLER_48_233
*1568 FILLER_48_245
*1569 FILLER_48_251
*1570 FILLER_48_253
*1571 FILLER_48_265
*1572 FILLER_48_27
*1573 FILLER_48_277
*1574 FILLER_48_289
*1575 FILLER_48_29
*1576 FILLER_48_297
*1577 FILLER_48_3
*1578 FILLER_48_41
*1579 FILLER_48_53
*1580 FILLER_48_63
*1581 FILLER_48_75
*1582 FILLER_48_83
*1583 FILLER_48_85
*1584 FILLER_48_97
*1585 FILLER_49_105
*1586 FILLER_49_111
*1587 FILLER_49_113
*1588 FILLER_49_125
*1589 FILLER_49_137
*1590 FILLER_49_149
*1591 FILLER_49_15
*1592 FILLER_49_161
*1593 FILLER_49_167
*1594 FILLER_49_169
*1595 FILLER_49_181
*1596 FILLER_49_193
*1597 FILLER_49_205
*1598 FILLER_49_217
*1599 FILLER_49_223
*1600 FILLER_49_225
*1601 FILLER_49_237
*1602 FILLER_49_249
*1603 FILLER_49_261
*1604 FILLER_49_27
*1605 FILLER_49_273
*1606 FILLER_49_279
*1607 FILLER_49_281
*1608 FILLER_49_293
*1609 FILLER_49_3
*1610 FILLER_49_39
*1611 FILLER_49_51
*1612 FILLER_49_55
*1613 FILLER_49_57
*1614 FILLER_49_69
*1615 FILLER_49_81
*1616 FILLER_49_93
*1617 FILLER_4_109
*1618 FILLER_4_121
*1619 FILLER_4_133
*1620 FILLER_4_139
*1621 FILLER_4_141
*1622 FILLER_4_153
*1623 FILLER_4_165
*1624 FILLER_4_177
*1625 FILLER_4_189
*1626 FILLER_4_195
*1627 FILLER_4_197
*1628 FILLER_4_209
*1629 FILLER_4_221
*1630 FILLER_4_233
*1631 FILLER_4_245
*1632 FILLER_4_251
*1633 FILLER_4_253
*1634 FILLER_4_26
*1635 FILLER_4_265
*1636 FILLER_4_277
*1637 FILLER_4_289
*1638 FILLER_4_29
*1639 FILLER_4_297
*1640 FILLER_4_3
*1641 FILLER_4_41
*1642 FILLER_4_53
*1643 FILLER_4_65
*1644 FILLER_4_77