*SPEF "ieee 1481-1999"
*DESIGN "tiny_bnn"
*DATE "11:11:11 Fri 11 11, 1111"
*VENDOR "OpenRCX"
*PROGRAM "Parallel Extraction"
*VERSION "1.0"
*DESIGN_FLOW "NAME_SCOPE LOCAL" "PIN_CAP NONE"
*DIVIDER /
*DELIMITER :
*BUS_DELIMITER []
*T_UNIT 1 NS
*C_UNIT 1 PF
*R_UNIT 1 OHM
*L_UNIT 1 HENRY

*NAME_MAP
*1 io_in[0]
*2 io_in[1]
*3 io_in[2]
*4 io_in[3]
*5 io_in[4]
*6 io_in[5]
*7 io_in[6]
*8 io_in[7]
*9 io_out[0]
*10 io_out[1]
*11 io_out[2]
*12 io_out[3]
*13 io_out[4]
*14 io_out[5]
*15 io_out[6]
*16 io_out[7]
*19 _0000_
*20 _0001_
*21 _0002_
*22 _0003_
*23 _0004_
*24 _0005_
*25 _0006_
*26 _0007_
*27 _0008_
*28 _0009_
*29 _0010_
*30 _0011_
*31 _0012_
*32 _0013_
*33 _0014_
*34 _0015_
*35 _0016_
*36 _0017_
*37 _0018_
*38 _0019_
*39 _0020_
*40 _0021_
*41 _0022_
*42 _0023_
*43 _0024_
*44 _0025_
*45 _0026_
*46 _0027_
*47 _0028_
*48 _0029_
*49 _0030_
*50 _0031_
*51 _0032_
*52 _0033_
*53 _0034_
*54 _0035_
*55 _0036_
*56 _0037_
*57 _0038_
*58 _0039_
*59 _0040_
*60 _0041_
*61 _0042_
*62 _0043_
*63 _0044_
*64 _0045_
*65 _0046_
*66 _0047_
*67 _0048_
*68 _0049_
*69 _0050_
*70 _0051_
*71 _0052_
*72 _0053_
*73 _0054_
*74 _0055_
*75 _0056_
*76 _0057_
*77 _0058_
*78 _0059_
*79 _0060_
*80 _0061_
*81 _0062_
*82 _0063_
*83 _0064_
*84 _0065_
*85 _0066_
*86 _0067_
*87 _0068_
*88 _0069_
*89 _0070_
*90 _0071_
*91 _0072_
*92 _0073_
*93 _0074_
*94 _0075_
*95 _0076_
*96 _0077_
*97 _0078_
*98 _0079_
*99 _0080_
*100 _0081_
*101 _0082_
*102 _0083_
*103 _0084_
*104 _0085_
*105 _0086_
*106 _0087_
*107 _0088_
*108 _0089_
*109 _0090_
*110 _0091_
*111 _0092_
*112 _0093_
*113 _0094_
*114 _0095_
*115 _0096_
*116 _0097_
*117 _0098_
*118 _0099_
*119 _0100_
*120 _0101_
*121 _0102_
*122 _0103_
*123 _0104_
*124 _0105_
*125 _0106_
*126 _0107_
*127 _0108_
*128 _0109_
*129 _0110_
*130 _0111_
*131 _0112_
*132 _0113_
*133 _0114_
*134 _0115_
*135 _0116_
*136 _0117_
*137 _0118_
*138 _0119_
*139 _0120_
*140 _0121_
*141 _0122_
*142 _0123_
*143 _0124_
*144 _0125_
*145 _0126_
*146 _0127_
*147 _0128_
*148 _0129_
*149 _0130_
*150 _0131_
*151 _0132_
*152 _0133_
*153 _0134_
*154 _0135_
*155 _0136_
*156 _0137_
*157 _0138_
*158 _0139_
*159 _0140_
*160 _0141_
*161 _0142_
*162 _0143_
*163 _0144_
*164 _0145_
*165 _0146_
*166 _0147_
*167 _0148_
*168 _0149_
*169 _0150_
*170 _0151_
*171 _0152_
*172 _0153_
*173 _0154_
*174 _0155_
*175 _0156_
*176 _0157_
*177 _0158_
*178 _0159_
*179 _0160_
*180 _0161_
*181 _0162_
*182 _0163_
*183 _0164_
*184 _0165_
*185 _0166_
*186 _0167_
*187 _0168_
*188 _0169_
*189 _0170_
*190 _0171_
*191 _0172_
*192 _0173_
*193 _0174_
*194 _0175_
*195 _0176_
*196 _0177_
*197 _0178_
*198 _0179_
*199 _0180_
*200 _0181_
*201 _0182_
*202 _0183_
*203 _0184_
*204 _0185_
*205 _0186_
*206 _0187_
*207 _0188_
*208 _0189_
*209 _0190_
*210 _0191_
*211 _0192_
*212 _0193_
*213 _0194_
*214 _0195_
*215 _0196_
*216 _0197_
*217 _0198_
*218 _0199_
*219 _0200_
*220 _0201_
*221 _0202_
*222 _0203_
*223 _0204_
*224 _0205_
*225 _0206_
*226 _0207_
*227 _0208_
*228 _0209_
*229 _0210_
*230 _0211_
*231 _0212_
*232 _0213_
*233 _0214_
*234 _0215_
*235 _0216_
*236 _0217_
*237 _0218_
*238 _0219_
*239 _0220_
*240 _0221_
*241 _0222_
*242 _0223_
*243 _0224_
*244 _0225_
*245 _0226_
*246 _0227_
*247 _0228_
*248 _0229_
*249 _0230_
*250 _0231_
*251 _0232_
*252 _0233_
*253 _0234_
*254 _0235_
*255 _0236_
*256 _0237_
*257 _0238_
*258 _0239_
*259 _0240_
*260 _0241_
*261 _0242_
*262 _0243_
*263 _0244_
*264 _0245_
*265 _0246_
*266 _0247_
*267 _0248_
*268 _0249_
*269 _0250_
*270 _0251_
*271 _0252_
*272 _0253_
*273 _0254_
*274 _0255_
*275 _0256_
*276 _0257_
*277 _0258_
*278 _0259_
*279 _0260_
*280 _0261_
*281 _0262_
*282 _0263_
*283 _0264_
*284 _0265_
*285 _0266_
*286 _0267_
*287 _0268_
*288 _0269_
*289 _0270_
*290 _0271_
*291 _0272_
*292 _0273_
*293 _0274_
*294 _0275_
*295 _0276_
*296 _0277_
*297 _0278_
*298 _0279_
*299 _0280_
*300 _0281_
*301 _0282_
*302 _0283_
*303 _0284_
*304 _0285_
*305 _0286_
*306 _0287_
*307 _0288_
*308 _0289_
*309 _0290_
*310 _0291_
*311 _0292_
*312 _0293_
*313 _0294_
*314 _0295_
*315 _0296_
*316 _0297_
*317 _0298_
*318 _0299_
*319 _0300_
*320 _0301_
*321 _0302_
*322 _0303_
*323 _0304_
*324 _0305_
*325 _0306_
*326 _0307_
*327 _0308_
*328 _0309_
*329 _0310_
*330 _0311_
*331 _0312_
*332 _0313_
*333 _0314_
*334 _0315_
*335 _0316_
*336 _0317_
*337 _0318_
*338 _0319_
*339 _0320_
*340 _0321_
*341 _0322_
*342 _0323_
*343 _0324_
*344 _0325_
*345 _0326_
*346 _0327_
*347 _0328_
*348 _0329_
*349 _0330_
*350 _0331_
*351 _0332_
*352 _0333_
*353 _0334_
*354 _0335_
*355 _0336_
*356 _0337_
*357 _0338_
*358 _0339_
*359 _0340_
*360 _0341_
*361 _0342_
*362 _0343_
*363 _0344_
*364 _0345_
*365 _0346_
*366 _0347_
*367 _0348_
*368 _0349_
*369 _0350_
*370 _0351_
*371 _0352_
*372 _0353_
*373 _0354_
*374 _0355_
*375 _0356_
*376 _0357_
*377 _0358_
*378 _0359_
*379 _0360_
*380 _0361_
*381 _0362_
*382 _0363_
*383 _0364_
*384 _0365_
*385 _0366_
*386 _0367_
*387 _0368_
*388 _0369_
*389 _0370_
*390 _0371_
*391 _0372_
*392 _0373_
*393 _0374_
*394 _0375_
*395 _0376_
*396 _0377_
*397 _0378_
*398 _0379_
*399 _0380_
*400 _0381_
*401 _0382_
*402 _0383_
*403 _0384_
*404 _0385_
*405 _0386_
*406 _0387_
*407 _0388_
*408 _0389_
*409 _0390_
*410 _0391_
*411 _0392_
*412 _0393_
*413 _0394_
*414 _0395_
*415 _0396_
*416 _0397_
*417 _0398_
*418 _0399_
*419 _0400_
*420 _0401_
*421 _0402_
*422 _0403_
*423 _0404_
*424 _0405_
*425 _0406_
*426 _0407_
*427 _0408_
*428 _0409_
*429 _0410_
*430 _0411_
*431 _0412_
*432 _0413_
*433 _0414_
*434 _0415_
*435 _0416_
*436 _0417_
*437 _0418_
*438 _0419_
*439 _0420_
*440 _0421_
*441 _0422_
*442 _0423_
*443 _0424_
*444 _0425_
*445 _0426_
*446 _0427_
*447 _0428_
*448 _0429_
*449 _0430_
*450 _0431_
*451 _0432_
*452 _0433_
*453 _0434_
*454 _0435_
*455 _0436_
*456 _0437_
*457 _0438_
*458 _0439_
*459 _0440_
*460 _0441_
*461 _0442_
*462 _0443_
*463 _0444_
*464 _0445_
*465 _0446_
*466 _0447_
*467 _0448_
*468 _0449_
*469 _0450_
*470 _0451_
*471 _0452_
*472 _0453_
*473 _0454_
*474 _0455_
*475 _0456_
*476 _0457_
*477 _0458_
*478 _0459_
*479 _0460_
*480 _0461_
*481 _0462_
*482 _0463_
*483 _0464_
*484 _0465_
*485 _0466_
*486 _0467_
*487 _0468_
*488 _0469_
*489 _0470_
*490 _0471_
*491 _0472_
*492 _0473_
*493 _0474_
*494 _0475_
*495 _0476_
*496 _0477_
*497 _0478_
*498 _0479_
*499 _0480_
*500 _0481_
*501 _0482_
*502 clknet_0_io_in[0]
*503 clknet_3_0__leaf_io_in[0]
*504 clknet_3_1__leaf_io_in[0]
*505 clknet_3_2__leaf_io_in[0]
*506 clknet_3_3__leaf_io_in[0]
*507 clknet_3_4__leaf_io_in[0]
*508 clknet_3_5__leaf_io_in[0]
*509 clknet_3_6__leaf_io_in[0]
*510 clknet_3_7__leaf_io_in[0]
*511 genblk1\.genblk1\[0\]\.output_layer\.axon
*512 genblk1\.genblk1\[0\]\.output_layer\.bias\[0\]
*513 genblk1\.genblk1\[0\]\.output_layer\.bias\[1\]
*514 genblk1\.genblk1\[0\]\.output_layer\.bias\[2\]
*515 genblk1\.genblk1\[0\]\.output_layer\.inputs\[0\]
*516 genblk1\.genblk1\[0\]\.output_layer\.inputs\[1\]
*517 genblk1\.genblk1\[0\]\.output_layer\.inputs\[2\]
*518 genblk1\.genblk1\[0\]\.output_layer\.inputs\[3\]
*519 genblk1\.genblk1\[0\]\.output_layer\.inputs\[4\]
*520 genblk1\.genblk1\[0\]\.output_layer\.inputs\[5\]
*521 genblk1\.genblk1\[0\]\.output_layer\.inputs\[6\]
*522 genblk1\.genblk1\[0\]\.output_layer\.inputs\[7\]
*523 genblk1\.genblk1\[0\]\.output_layer\.weights\[0\]
*524 genblk1\.genblk1\[0\]\.output_layer\.weights\[1\]
*525 genblk1\.genblk1\[0\]\.output_layer\.weights\[2\]
*526 genblk1\.genblk1\[0\]\.output_layer\.weights\[3\]
*527 genblk1\.genblk1\[0\]\.output_layer\.weights\[4\]
*528 genblk1\.genblk1\[0\]\.output_layer\.weights\[5\]
*529 genblk1\.genblk1\[0\]\.output_layer\.weights\[6\]
*530 genblk1\.genblk1\[0\]\.output_layer\.weights\[7\]
*531 genblk1\.genblk1\[1\]\.output_layer\.axon
*532 genblk1\.genblk1\[1\]\.output_layer\.bias\[0\]
*533 genblk1\.genblk1\[1\]\.output_layer\.bias\[1\]
*534 genblk1\.genblk1\[1\]\.output_layer\.bias\[2\]
*535 genblk1\.genblk1\[1\]\.output_layer\.weights\[0\]
*536 genblk1\.genblk1\[1\]\.output_layer\.weights\[1\]
*537 genblk1\.genblk1\[1\]\.output_layer\.weights\[2\]
*538 genblk1\.genblk1\[1\]\.output_layer\.weights\[3\]
*539 genblk1\.genblk1\[1\]\.output_layer\.weights\[4\]
*540 genblk1\.genblk1\[1\]\.output_layer\.weights\[5\]
*541 genblk1\.genblk1\[1\]\.output_layer\.weights\[6\]
*542 genblk1\.genblk1\[1\]\.output_layer\.weights\[7\]
*543 genblk1\.genblk1\[2\]\.output_layer\.axon
*544 genblk1\.genblk1\[2\]\.output_layer\.bias\[0\]
*545 genblk1\.genblk1\[2\]\.output_layer\.bias\[1\]
*546 genblk1\.genblk1\[2\]\.output_layer\.bias\[2\]
*547 genblk1\.genblk1\[2\]\.output_layer\.weights\[0\]
*548 genblk1\.genblk1\[2\]\.output_layer\.weights\[1\]
*549 genblk1\.genblk1\[2\]\.output_layer\.weights\[2\]
*550 genblk1\.genblk1\[2\]\.output_layer\.weights\[3\]
*551 genblk1\.genblk1\[2\]\.output_layer\.weights\[4\]
*552 genblk1\.genblk1\[2\]\.output_layer\.weights\[5\]
*553 genblk1\.genblk1\[2\]\.output_layer\.weights\[6\]
*554 genblk1\.genblk1\[2\]\.output_layer\.weights\[7\]
*555 genblk1\.genblk1\[3\]\.output_layer\.axon
*556 genblk1\.genblk1\[3\]\.output_layer\.bias\[0\]
*557 genblk1\.genblk1\[3\]\.output_layer\.bias\[1\]
*558 genblk1\.genblk1\[3\]\.output_layer\.bias\[2\]
*559 genblk1\.genblk1\[3\]\.output_layer\.weights\[0\]
*560 genblk1\.genblk1\[3\]\.output_layer\.weights\[1\]
*561 genblk1\.genblk1\[3\]\.output_layer\.weights\[2\]
*562 genblk1\.genblk1\[3\]\.output_layer\.weights\[3\]
*563 genblk1\.genblk1\[3\]\.output_layer\.weights\[4\]
*564 genblk1\.genblk1\[3\]\.output_layer\.weights\[5\]
*565 genblk1\.genblk1\[3\]\.output_layer\.weights\[6\]
*566 genblk1\.genblk1\[3\]\.output_layer\.weights\[7\]
*567 genblk1\.genblk1\[4\]\.output_layer\.axon
*568 genblk1\.genblk1\[4\]\.output_layer\.bias\[0\]
*569 genblk1\.genblk1\[4\]\.output_layer\.bias\[1\]
*570 genblk1\.genblk1\[4\]\.output_layer\.bias\[2\]
*571 genblk1\.genblk1\[4\]\.output_layer\.weights\[0\]
*572 genblk1\.genblk1\[4\]\.output_layer\.weights\[1\]
*573 genblk1\.genblk1\[4\]\.output_layer\.weights\[2\]
*574 genblk1\.genblk1\[4\]\.output_layer\.weights\[3\]
*575 genblk1\.genblk1\[4\]\.output_layer\.weights\[4\]
*576 genblk1\.genblk1\[4\]\.output_layer\.weights\[5\]
*577 genblk1\.genblk1\[4\]\.output_layer\.weights\[6\]
*578 genblk1\.genblk1\[4\]\.output_layer\.weights\[7\]
*579 genblk1\.genblk1\[5\]\.output_layer\.axon
*580 genblk1\.genblk1\[5\]\.output_layer\.bias\[0\]
*581 genblk1\.genblk1\[5\]\.output_layer\.bias\[1\]
*582 genblk1\.genblk1\[5\]\.output_layer\.bias\[2\]
*583 genblk1\.genblk1\[5\]\.output_layer\.weights\[0\]
*584 genblk1\.genblk1\[5\]\.output_layer\.weights\[1\]
*585 genblk1\.genblk1\[5\]\.output_layer\.weights\[2\]
*586 genblk1\.genblk1\[5\]\.output_layer\.weights\[3\]
*587 genblk1\.genblk1\[5\]\.output_layer\.weights\[4\]
*588 genblk1\.genblk1\[5\]\.output_layer\.weights\[5\]
*589 genblk1\.genblk1\[5\]\.output_layer\.weights\[6\]
*590 genblk1\.genblk1\[5\]\.output_layer\.weights\[7\]
*591 genblk1\.genblk1\[6\]\.output_layer\.axon
*592 genblk1\.genblk1\[6\]\.output_layer\.bias\[0\]
*593 genblk1\.genblk1\[6\]\.output_layer\.bias\[1\]
*594 genblk1\.genblk1\[6\]\.output_layer\.bias\[2\]
*595 genblk1\.genblk1\[6\]\.output_layer\.weights\[0\]
*596 genblk1\.genblk1\[6\]\.output_layer\.weights\[1\]
*597 genblk1\.genblk1\[6\]\.output_layer\.weights\[2\]
*598 genblk1\.genblk1\[6\]\.output_layer\.weights\[3\]
*599 genblk1\.genblk1\[6\]\.output_layer\.weights\[4\]
*600 genblk1\.genblk1\[6\]\.output_layer\.weights\[5\]
*601 genblk1\.genblk1\[6\]\.output_layer\.weights\[6\]
*602 genblk1\.genblk1\[6\]\.output_layer\.weights\[7\]
*603 genblk1\.genblk1\[7\]\.output_layer\.axon
*604 genblk1\.genblk1\[7\]\.output_layer\.bias\[0\]
*605 genblk1\.genblk1\[7\]\.output_layer\.bias\[1\]
*606 genblk1\.genblk1\[7\]\.output_layer\.bias\[2\]
*607 genblk1\.genblk1\[7\]\.output_layer\.weights\[0\]
*608 genblk1\.genblk1\[7\]\.output_layer\.weights\[1\]
*609 genblk1\.genblk1\[7\]\.output_layer\.weights\[2\]
*610 genblk1\.genblk1\[7\]\.output_layer\.weights\[3\]
*611 genblk1\.genblk1\[7\]\.output_layer\.weights\[4\]
*612 genblk1\.genblk1\[7\]\.output_layer\.weights\[5\]
*613 genblk1\.genblk1\[7\]\.output_layer\.weights\[6\]
*614 genblk1\.genblk1\[7\]\.output_layer\.weights\[7\]
*615 net1
*616 net2
*617 net3
*618 net4
*619 net5
*620 net6
*621 net7
*622 FILLER_0_109
*623 FILLER_0_113
*624 FILLER_0_125
*625 FILLER_0_137
*626 FILLER_0_141
*627 FILLER_0_15
*628 FILLER_0_153
*629 FILLER_0_165
*630 FILLER_0_169
*631 FILLER_0_181
*632 FILLER_0_193
*633 FILLER_0_197
*634 FILLER_0_209
*635 FILLER_0_221
*636 FILLER_0_225
*637 FILLER_0_237
*638 FILLER_0_249
*639 FILLER_0_253
*640 FILLER_0_265
*641 FILLER_0_27
*642 FILLER_0_277
*643 FILLER_0_281
*644 FILLER_0_29
*645 FILLER_0_293
*646 FILLER_0_3
*647 FILLER_0_41
*648 FILLER_0_53
*649 FILLER_0_57
*650 FILLER_0_69
*651 FILLER_0_81
*652 FILLER_0_85
*653 FILLER_0_97
*654 FILLER_10_102
*655 FILLER_10_109
*656 FILLER_10_113
*657 FILLER_10_120
*658 FILLER_10_129
*659 FILLER_10_136
*660 FILLER_10_141
*661 FILLER_10_146
*662 FILLER_10_158
*663 FILLER_10_170
*664 FILLER_10_182
*665 FILLER_10_19
*666 FILLER_10_194
*667 FILLER_10_197
*668 FILLER_10_209
*669 FILLER_10_221
*670 FILLER_10_233
*671 FILLER_10_245
*672 FILLER_10_251
*673 FILLER_10_253
*674 FILLER_10_26
*675 FILLER_10_265
*676 FILLER_10_277
*677 FILLER_10_289
*678 FILLER_10_29
*679 FILLER_10_297
*680 FILLER_10_3
*681 FILLER_10_40
*682 FILLER_10_54
*683 FILLER_10_63
*684 FILLER_10_76
*685 FILLER_10_85
*686 FILLER_10_9
*687 FILLER_10_93
*688 FILLER_11_108
*689 FILLER_11_113
*690 FILLER_11_120
*691 FILLER_11_124
*692 FILLER_11_133
*693 FILLER_11_139
*694 FILLER_11_149
*695 FILLER_11_156
*696 FILLER_11_169
*697 FILLER_11_181
*698 FILLER_11_193
*699 FILLER_11_205
*700 FILLER_11_21
*701 FILLER_11_217
*702 FILLER_11_223
*703 FILLER_11_225
*704 FILLER_11_237
*705 FILLER_11_249
*706 FILLER_11_261
*707 FILLER_11_273
*708 FILLER_11_279
*709 FILLER_11_281
*710 FILLER_11_293
*711 FILLER_11_3
*712 FILLER_11_32
*713 FILLER_11_40
*714 FILLER_11_54
*715 FILLER_11_57
*716 FILLER_11_62
*717 FILLER_11_73
*718 FILLER_11_84
*719 FILLER_11_97
*720 FILLER_12_121
*721 FILLER_12_132
*722 FILLER_12_141
*723 FILLER_12_159
*724 FILLER_12_17
*725 FILLER_12_171
*726 FILLER_12_183
*727 FILLER_12_195
*728 FILLER_12_197
*729 FILLER_12_209
*730 FILLER_12_221
*731 FILLER_12_23
*732 FILLER_12_233
*733 FILLER_12_245
*734 FILLER_12_251
*735 FILLER_12_253
*736 FILLER_12_265
*737 FILLER_12_27
*738 FILLER_12_277
*739 FILLER_12_289
*740 FILLER_12_29
*741 FILLER_12_297
*742 FILLER_12_3
*743 FILLER_12_35
*744 FILLER_12_41
*745 FILLER_12_65
*746 FILLER_12_71
*747 FILLER_12_82
*748 FILLER_12_85
*749 FILLER_12_9
*750 FILLER_12_97
*751 FILLER_13_108
*752 FILLER_13_113
*753 FILLER_13_12
*754 FILLER_13_122
*755 FILLER_13_132
*756 FILLER_13_140
*757 FILLER_13_145
*758 FILLER_13_165
*759 FILLER_13_169
*760 FILLER_13_181
*761 FILLER_13_19
*762 FILLER_13_193
*763 FILLER_13_205
*764 FILLER_13_217
*765 FILLER_13_223
*766 FILLER_13_225
*767 FILLER_13_237
*768 FILLER_13_249
*769 FILLER_13_261
*770 FILLER_13_273
*771 FILLER_13_279
*772 FILLER_13_281
*773 FILLER_13_29
*774 FILLER_13_293
*775 FILLER_13_3
*776 FILLER_13_40
*777 FILLER_13_50
*778 FILLER_13_57
*779 FILLER_13_75
*780 FILLER_13_88
*781 FILLER_13_95
*782 FILLER_14_106
*783 FILLER_14_114
*784 FILLER_14_118
*785 FILLER_14_138
*786 FILLER_14_141
*787 FILLER_14_158
*788 FILLER_14_170
*789 FILLER_14_18
*790 FILLER_14_182
*791 FILLER_14_194
*792 FILLER_14_197
*793 FILLER_14_209
*794 FILLER_14_221
*795 FILLER_14_233
*796 FILLER_14_245
*797 FILLER_14_251
*798 FILLER_14_253
*799 FILLER_14_26
*800 FILLER_14_265
*801 FILLER_14_277
*802 FILLER_14_289
*803 FILLER_14_29
*804 FILLER_14_297
*805 FILLER_14_3
*806 FILLER_14_38
*807 FILLER_14_44
*808 FILLER_14_54
*809 FILLER_14_58
*810 FILLER_14_62
*811 FILLER_14_82
*812 FILLER_14_85
*813 FILLER_14_94
*814 FILLER_15_105
*815 FILLER_15_111
*816 FILLER_15_113
*817 FILLER_15_124
*818 FILLER_15_132
*819 FILLER_15_149
*820 FILLER_15_158
*821 FILLER_15_166
*822 FILLER_15_169
*823 FILLER_15_181
*824 FILLER_15_193
*825 FILLER_15_205
*826 FILLER_15_21
*827 FILLER_15_217
*828 FILLER_15_223
*829 FILLER_15_225
*830 FILLER_15_237
*831 FILLER_15_249
*832 FILLER_15_261
*833 FILLER_15_273
*834 FILLER_15_279
*835 FILLER_15_281
*836 FILLER_15_293
*837 FILLER_15_3
*838 FILLER_15_32
*839 FILLER_15_40
*840 FILLER_15_51
*841 FILLER_15_55
*842 FILLER_15_57
*843 FILLER_15_76
*844 FILLER_15_80
*845 FILLER_15_85
*846 FILLER_16_100
*847 FILLER_16_121
*848 FILLER_16_136
*849 FILLER_16_141
*850 FILLER_16_150
*851 FILLER_16_17
*852 FILLER_16_170
*853 FILLER_16_182
*854 FILLER_16_194
*855 FILLER_16_197
*856 FILLER_16_209
*857 FILLER_16_21
*858 FILLER_16_221
*859 FILLER_16_233
*860 FILLER_16_245
*861 FILLER_16_251
*862 FILLER_16_253
*863 FILLER_16_265
*864 FILLER_16_27
*865 FILLER_16_277
*866 FILLER_16_289
*867 FILLER_16_29
*868 FILLER_16_297
*869 FILLER_16_3
*870 FILLER_16_36
*871 FILLER_16_44
*872 FILLER_16_65
*873 FILLER_16_72
*874 FILLER_16_79
*875 FILLER_16_83
*876 FILLER_16_85
*877 FILLER_16_9
*878 FILLER_16_94
*879 FILLER_17_103
*880 FILLER_17_110
*881 FILLER_17_113
*882 FILLER_17_131
*883 FILLER_17_135
*884 FILLER_17_145
*885 FILLER_17_151
*886 FILLER_17_161
*887 FILLER_17_167
*888 FILLER_17_169
*889 FILLER_17_17
*890 FILLER_17_181
*891 FILLER_17_193
*892 FILLER_17_205
*893 FILLER_17_217
*894 FILLER_17_223
*895 FILLER_17_225
*896 FILLER_17_237
*897 FILLER_17_24
*898 FILLER_17_249
*899 FILLER_17_261
*900 FILLER_17_273
*901 FILLER_17_279
*902 FILLER_17_281
*903 FILLER_17_293
*904 FILLER_17_3
*905 FILLER_17_35
*906 FILLER_17_42
*907 FILLER_17_51
*908 FILLER_17_55
*909 FILLER_17_57
*910 FILLER_17_64
*911 FILLER_17_7
*912 FILLER_17_84
*913 FILLER_17_91
*914 FILLER_17_99
*915 FILLER_18_105
*916 FILLER_18_113
*917 FILLER_18_125
*918 FILLER_18_134
*919 FILLER_18_141
*920 FILLER_18_152
*921 FILLER_18_174
*922 FILLER_18_186
*923 FILLER_18_194
*924 FILLER_18_197
*925 FILLER_18_209
*926 FILLER_18_21
*927 FILLER_18_221
*928 FILLER_18_233
*929 FILLER_18_245
*930 FILLER_18_251
*931 FILLER_18_253
*932 FILLER_18_265
*933 FILLER_18_27
*934 FILLER_18_277
*935 FILLER_18_289
*936 FILLER_18_29
*937 FILLER_18_297
*938 FILLER_18_3
*939 FILLER_18_39
*940 FILLER_18_43
*941 FILLER_18_47
*942 FILLER_18_68
*943 FILLER_18_72
*944 FILLER_18_82
*945 FILLER_18_85
*946 FILLER_19_110
*947 FILLER_19_113
*948 FILLER_19_117
*949 FILLER_19_128
*950 FILLER_19_139
*951 FILLER_19_161
*952 FILLER_19_167
*953 FILLER_19_169
*954 FILLER_19_174
*955 FILLER_19_186
*956 FILLER_19_19
*957 FILLER_19_198
*958 FILLER_19_210
*959 FILLER_19_222
*960 FILLER_19_225
*961 FILLER_19_237
*962 FILLER_19_249
*963 FILLER_19_261
*964 FILLER_19_273
*965 FILLER_19_279
*966 FILLER_19_281
*967 FILLER_19_29
*968 FILLER_19_293
*969 FILLER_19_3
*970 FILLER_19_40
*971 FILLER_19_53
*972 FILLER_19_57
*973 FILLER_19_65
*974 FILLER_19_77
*975 FILLER_19_8
*976 FILLER_19_90
*977 FILLER_1_105
*978 FILLER_1_11
*979 FILLER_1_111
*980 FILLER_1_113
*981 FILLER_1_125
*982 FILLER_1_137
*983 FILLER_1_149
*984 FILLER_1_161
*985 FILLER_1_167
*986 FILLER_1_169
*987 FILLER_1_17
*988 FILLER_1_181
*989 FILLER_1_193
*990 FILLER_1_205
*991 FILLER_1_217
*992 FILLER_1_223
*993 FILLER_1_225
*994 FILLER_1_237
*995 FILLER_1_249
*996 FILLER_1_261
*997 FILLER_1_273
*998 FILLER_1_279
*999 FILLER_1_281
*1000 FILLER_1_29
*1001 FILLER_1_293
*1002 FILLER_1_3
*1003 FILLER_1_41
*1004 FILLER_1_53
*1005 FILLER_1_57
*1006 FILLER_1_69
*1007 FILLER_1_81
*1008 FILLER_1_93
*1009 FILLER_20_103
*1010 FILLER_20_110
*1011 FILLER_20_121
*1012 FILLER_20_132
*1013 FILLER_20_141
*1014 FILLER_20_148
*1015 FILLER_20_15
*1016 FILLER_20_156
*1017 FILLER_20_166
*1018 FILLER_20_173
*1019 FILLER_20_185
*1020 FILLER_20_193
*1021 FILLER_20_197
*1022 FILLER_20_209
*1023 FILLER_20_221
*1024 FILLER_20_233
*1025 FILLER_20_245
*1026 FILLER_20_251
*1027 FILLER_20_253
*1028 FILLER_20_26
*1029 FILLER_20_265
*1030 FILLER_20_277
*1031 FILLER_20_289
*1032 FILLER_20_29
*1033 FILLER_20_297
*1034 FILLER_20_3
*1035 FILLER_20_38
*1036 FILLER_20_44
*1037 FILLER_20_54
*1038 FILLER_20_58
*1039 FILLER_20_68
*1040 FILLER_20_79
*1041 FILLER_20_8
*1042 FILLER_20_83
*1043 FILLER_20_85
*1044 FILLER_20_90
*1045 FILLER_20_97
*1046 FILLER_21_110
*1047 FILLER_21_113
*1048 FILLER_21_121
*1049 FILLER_21_125
*1050 FILLER_21_131
*1051 FILLER_21_135
*1052 FILLER_21_141
*1053 FILLER_21_149
*1054 FILLER_21_155
*1055 FILLER_21_166
*1056 FILLER_21_169
*1057 FILLER_21_17
*1058 FILLER_21_180
*1059 FILLER_21_192
*1060 FILLER_21_204
*1061 FILLER_21_216
*1062 FILLER_21_225
*1063 FILLER_21_237
*1064 FILLER_21_249
*1065 FILLER_21_261
*1066 FILLER_21_273
*1067 FILLER_21_279
*1068 FILLER_21_281
*1069 FILLER_21_293
*1070 FILLER_21_3
*1071 FILLER_21_30
*1072 FILLER_21_41
*1073 FILLER_21_49
*1074 FILLER_21_54
*1075 FILLER_21_57
*1076 FILLER_21_7
*1077 FILLER_21_75
*1078 FILLER_21_84
*1079 FILLER_21_93
*1080 FILLER_22_101
*1081 FILLER_22_118
*1082 FILLER_22_126
*1083 FILLER_22_136
*1084 FILLER_22_141
*1085 FILLER_22_150
*1086 FILLER_22_158
*1087 FILLER_22_176
*1088 FILLER_22_188
*1089 FILLER_22_197
*1090 FILLER_22_209
*1091 FILLER_22_21
*1092 FILLER_22_221
*1093 FILLER_22_233
*1094 FILLER_22_245
*1095 FILLER_22_251
*1096 FILLER_22_253
*1097 FILLER_22_265
*1098 FILLER_22_27
*1099 FILLER_22_277
*1100 FILLER_22_289
*1101 FILLER_22_29
*1102 FILLER_22_297
*1103 FILLER_22_3
*1104 FILLER_22_36
*1105 FILLER_22_57
*1106 FILLER_22_65
*1107 FILLER_22_71
*1108 FILLER_22_82
*1109 FILLER_22_85
*1110 FILLER_22_95
*1111 FILLER_23_103
*1112 FILLER_23_107
*1113 FILLER_23_111
*1114 FILLER_23_113
*1115 FILLER_23_125
*1116 FILLER_23_132
*1117 FILLER_23_136
*1118 FILLER_23_141
*1119 FILLER_23_151
*1120 FILLER_23_160
*1121 FILLER_23_169
*1122 FILLER_23_181
*1123 FILLER_23_193
*1124 FILLER_23_205
*1125 FILLER_23_217
*1126 FILLER_23_223
*1127 FILLER_23_225
*1128 FILLER_23_237
*1129 FILLER_23_249
*1130 FILLER_23_261
*1131 FILLER_23_273
*1132 FILLER_23_279
*1133 FILLER_23_281
*1134 FILLER_23_293
*1135 FILLER_23_3
*1136 FILLER_23_31
*1137 FILLER_23_39
*1138 FILLER_23_50
*1139 FILLER_23_57
*1140 FILLER_23_62
*1141 FILLER_23_74
*1142 FILLER_23_78
*1143 FILLER_23_86
*1144 FILLER_23_9
*1145 FILLER_23_92
*1146 FILLER_23_99
*1147 FILLER_24_108
*1148 FILLER_24_120
*1149 FILLER_24_125
*1150 FILLER_24_132
*1151 FILLER_24_141
*1152 FILLER_24_149
*1153 FILLER_24_157
*1154 FILLER_24_176
*1155 FILLER_24_18
*1156 FILLER_24_188
*1157 FILLER_24_197
*1158 FILLER_24_209
*1159 FILLER_24_221
*1160 FILLER_24_233
*1161 FILLER_24_245
*1162 FILLER_24_251
*1163 FILLER_24_253
*1164 FILLER_24_26
*1165 FILLER_24_265
*1166 FILLER_24_277
*1167 FILLER_24_289
*1168 FILLER_24_29
*1169 FILLER_24_297
*1170 FILLER_24_3
*1171 FILLER_24_39
*1172 FILLER_24_48
*1173 FILLER_24_65
*1174 FILLER_24_73
*1175 FILLER_24_77
*1176 FILLER_24_83
*1177 FILLER_24_85
*1178 FILLER_24_96
*1179 FILLER_25_110
*1180 FILLER_25_113
*1181 FILLER_25_118
*1182 FILLER_25_124
*1183 FILLER_25_13
*1184 FILLER_25_132
*1185 FILLER_25_144
*1186 FILLER_25_153
*1187 FILLER_25_161
*1188 FILLER_25_166
*1189 FILLER_25_169
*1190 FILLER_25_180
*1191 FILLER_25_192
*1192 FILLER_25_204
*1193 FILLER_25_216
*1194 FILLER_25_225
*1195 FILLER_25_237
*1196 FILLER_25_249
*1197 FILLER_25_26
*1198 FILLER_25_261
*1199 FILLER_25_273
*1200 FILLER_25_279
*1201 FILLER_25_281
*1202 FILLER_25_293
*1203 FILLER_25_3
*1204 FILLER_25_43
*1205 FILLER_25_52
*1206 FILLER_25_57
*1207 FILLER_25_75
*1208 FILLER_25_86
*1209 FILLER_25_9
*1210 FILLER_25_94
*1211 FILLER_25_99
*1212 FILLER_26_104
*1213 FILLER_26_121
*1214 FILLER_26_131
*1215 FILLER_26_138
*1216 FILLER_26_141
*1217 FILLER_26_150
*1218 FILLER_26_159
*1219 FILLER_26_166
*1220 FILLER_26_178
*1221 FILLER_26_190
*1222 FILLER_26_197
*1223 FILLER_26_209
*1224 FILLER_26_21
*1225 FILLER_26_221
*1226 FILLER_26_233
*1227 FILLER_26_245
*1228 FILLER_26_251
*1229 FILLER_26_253
*1230 FILLER_26_265
*1231 FILLER_26_27
*1232 FILLER_26_277
*1233 FILLER_26_289
*1234 FILLER_26_29
*1235 FILLER_26_297
*1236 FILLER_26_3
*1237 FILLER_26_38
*1238 FILLER_26_59
*1239 FILLER_26_71
*1240 FILLER_26_82
*1241 FILLER_26_85
*1242 FILLER_26_91
*1243 FILLER_26_98
*1244 FILLER_27_107
*1245 FILLER_27_11
*1246 FILLER_27_111
*1247 FILLER_27_113
*1248 FILLER_27_124
*1249 FILLER_27_135
*1250 FILLER_27_144
*1251 FILLER_27_156
*1252 FILLER_27_162
*1253 FILLER_27_166
*1254 FILLER_27_169
*1255 FILLER_27_180
*1256 FILLER_27_192
*1257 FILLER_27_20
*1258 FILLER_27_204
*1259 FILLER_27_216
*1260 FILLER_27_225
*1261 FILLER_27_237
*1262 FILLER_27_249
*1263 FILLER_27_261
*1264 FILLER_27_273
*1265 FILLER_27_279
*1266 FILLER_27_281
*1267 FILLER_27_293
*1268 FILLER_27_3
*1269 FILLER_27_33
*1270 FILLER_27_43
*1271 FILLER_27_50
*1272 FILLER_27_57
*1273 FILLER_27_62
*1274 FILLER_27_69
*1275 FILLER_27_7
*1276 FILLER_27_75
*1277 FILLER_27_85
*1278 FILLER_27_89
*1279 FILLER_27_96
*1280 FILLER_28_100
*1281 FILLER_28_109
*1282 FILLER_28_116
*1283 FILLER_28_123
*1284 FILLER_28_136
*1285 FILLER_28_141
*1286 FILLER_28_152
*1287 FILLER_28_158
*1288 FILLER_28_175
*1289 FILLER_28_187
*1290 FILLER_28_195
*1291 FILLER_28_197
*1292 FILLER_28_209
*1293 FILLER_28_221
*1294 FILLER_28_233
*1295 FILLER_28_245
*1296 FILLER_28_251
*1297 FILLER_28_253
*1298 FILLER_28_26
*1299 FILLER_28_265
*1300 FILLER_28_277
*1301 FILLER_28_289
*1302 FILLER_28_29
*1303 FILLER_28_297
*1304 FILLER_28_3
*1305 FILLER_28_33
*1306 FILLER_28_51
*1307 FILLER_28_58
*1308 FILLER_28_78
*1309 FILLER_28_85
*1310 FILLER_28_91
*1311 FILLER_29_110
*1312 FILLER_29_113
*1313 FILLER_29_122
*1314 FILLER_29_13
*1315 FILLER_29_133
*1316 FILLER_29_139
*1317 FILLER_29_156
*1318 FILLER_29_169
*1319 FILLER_29_17
*1320 FILLER_29_181
*1321 FILLER_29_193
*1322 FILLER_29_205
*1323 FILLER_29_217
*1324 FILLER_29_223
*1325 FILLER_29_225
*1326 FILLER_29_237
*1327 FILLER_29_249
*1328 FILLER_29_261
*1329 FILLER_29_273
*1330 FILLER_29_279
*1331 FILLER_29_281
*1332 FILLER_29_293
*1333 FILLER_29_3
*1334 FILLER_29_37
*1335 FILLER_29_49
*1336 FILLER_29_55
*1337 FILLER_29_57
*1338 FILLER_29_67
*1339 FILLER_29_80
*1340 FILLER_29_9
*1341 FILLER_29_97
*1342 FILLER_2_109
*1343 FILLER_2_121
*1344 FILLER_2_133
*1345 FILLER_2_139
*1346 FILLER_2_141
*1347 FILLER_2_153
*1348 FILLER_2_165
*1349 FILLER_2_177
*1350 FILLER_2_189
*1351 FILLER_2_195
*1352 FILLER_2_197
*1353 FILLER_2_209
*1354 FILLER_2_221
*1355 FILLER_2_233
*1356 FILLER_2_245
*1357 FILLER_2_251
*1358 FILLER_2_253
*1359 FILLER_2_26
*1360 FILLER_2_265
*1361 FILLER_2_277
*1362 FILLER_2_289
*1363 FILLER_2_29
*1364 FILLER_2_297
*1365 FILLER_2_3
*1366 FILLER_2_33
*1367 FILLER_2_37
*1368 FILLER_2_49
*1369 FILLER_2_61
*1370 FILLER_2_73
*1371 FILLER_2_81
*1372 FILLER_2_85
*1373 FILLER_2_9
*1374 FILLER_2_97
*1375 FILLER_30_109
*1376 FILLER_30_113
*1377 FILLER_30_130
*1378 FILLER_30_134
*1379 FILLER_30_138
*1380 FILLER_30_141
*1381 FILLER_30_146
*1382 FILLER_30_154
*1383 FILLER_30_172
*1384 FILLER_30_184
*1385 FILLER_30_197
*1386 FILLER_30_209
*1387 FILLER_30_221
*1388 FILLER_30_233
*1389 FILLER_30_245
*1390 FILLER_30_251
*1391 FILLER_30_253
*1392 FILLER_30_26
*1393 FILLER_30_265
*1394 FILLER_30_277
*1395 FILLER_30_289
*1396 FILLER_30_29
*1397 FILLER_30_297
*1398 FILLER_30_3
*1399 FILLER_30_41
*1400 FILLER_30_61
*1401 FILLER_30_71
*1402 FILLER_30_82
*1403 FILLER_30_85
*1404 FILLER_30_9
*1405 FILLER_31_104
*1406 FILLER_31_113
*1407 FILLER_31_121
*1408 FILLER_31_133
*1409 FILLER_31_145
*1410 FILLER_31_153
*1411 FILLER_31_163
*1412 FILLER_31_167
*1413 FILLER_31_169
*1414 FILLER_31_181
*1415 FILLER_31_193
*1416 FILLER_31_205
*1417 FILLER_31_21
*1418 FILLER_31_217
*1419 FILLER_31_223
*1420 FILLER_31_225
*1421 FILLER_31_237
*1422 FILLER_31_249
*1423 FILLER_31_261
*1424 FILLER_31_273
*1425 FILLER_31_279
*1426 FILLER_31_281
*1427 FILLER_31_29
*1428 FILLER_31_293
*1429 FILLER_31_3
*1430 FILLER_31_39
*1431 FILLER_31_54
*1432 FILLER_31_57
*1433 FILLER_31_71
*1434 FILLER_31_84
*1435 FILLER_32_116
*1436 FILLER_32_12
*1437 FILLER_32_138
*1438 FILLER_32_141
*1439 FILLER_32_152
*1440 FILLER_32_156
*1441 FILLER_32_160
*1442 FILLER_32_172
*1443 FILLER_32_184
*1444 FILLER_32_197
*1445 FILLER_32_20
*1446 FILLER_32_209
*1447 FILLER_32_221
*1448 FILLER_32_233
*1449 FILLER_32_245
*1450 FILLER_32_251
*1451 FILLER_32_253
*1452 FILLER_32_26
*1453 FILLER_32_265
*1454 FILLER_32_277
*1455 FILLER_32_289
*1456 FILLER_32_29
*1457 FILLER_32_297
*1458 FILLER_32_3
*1459 FILLER_32_53
*1460 FILLER_32_73
*1461 FILLER_32_81
*1462 FILLER_32_85
*1463 FILLER_32_89
*1464 FILLER_32_93
*1465 FILLER_32_99
*1466 FILLER_33_105
*1467 FILLER_33_110
*1468 FILLER_33_113
*1469 FILLER_33_117
*1470 FILLER_33_121
*1471 FILLER_33_134
*1472 FILLER_33_154
*1473 FILLER_33_165
*1474 FILLER_33_169
*1475 FILLER_33_180
*1476 FILLER_33_192
*1477 FILLER_33_204
*1478 FILLER_33_21
*1479 FILLER_33_216
*1480 FILLER_33_225
*1481 FILLER_33_237
*1482 FILLER_33_249
*1483 FILLER_33_261
*1484 FILLER_33_273
*1485 FILLER_33_279
*1486 FILLER_33_281
*1487 FILLER_33_293
*1488 FILLER_33_3
*1489 FILLER_33_34
*1490 FILLER_33_45
*1491 FILLER_33_54
*1492 FILLER_33_57
*1493 FILLER_33_68
*1494 FILLER_33_90
*1495 FILLER_33_97
*1496 FILLER_34_10
*1497 FILLER_34_102
*1498 FILLER_34_119
*1499 FILLER_34_128
*1500 FILLER_34_141
*1501 FILLER_34_146
*1502 FILLER_34_155
*1503 FILLER_34_175
*1504 FILLER_34_187
*1505 FILLER_34_195
*1506 FILLER_34_197
*1507 FILLER_34_209
*1508 FILLER_34_221
*1509 FILLER_34_23
*1510 FILLER_34_233
*1511 FILLER_34_245
*1512 FILLER_34_251
*1513 FILLER_34_253
*1514 FILLER_34_265
*1515 FILLER_34_27
*1516 FILLER_34_277
*1517 FILLER_34_289
*1518 FILLER_34_29
*1519 FILLER_34_297
*1520 FILLER_34_3
*1521 FILLER_34_41
*1522 FILLER_34_49
*1523 FILLER_34_57
*1524 FILLER_34_74
*1525 FILLER_34_81
*1526 FILLER_34_85
*1527 FILLER_34_94
*1528 FILLER_35_102
*1529 FILLER_35_110
*1530 FILLER_35_113
*1531 FILLER_35_124
*1532 FILLER_35_132
*1533 FILLER_35_140
*1534 FILLER_35_146
*1535 FILLER_35_153
*1536 FILLER_35_161
*1537 FILLER_35_167
*1538 FILLER_35_169
*1539 FILLER_35_181
*1540 FILLER_35_193
*1541 FILLER_35_205
*1542 FILLER_35_21
*1543 FILLER_35_217
*1544 FILLER_35_223
*1545 FILLER_35_225
*1546 FILLER_35_237
*1547 FILLER_35_249
*1548 FILLER_35_261
*1549 FILLER_35_273
*1550 FILLER_35_279
*1551 FILLER_35_281
*1552 FILLER_35_293
*1553 FILLER_35_3
*1554 FILLER_35_34
*1555 FILLER_35_48
*1556 FILLER_35_57