*SPEF "ieee 1481-1999"
*DESIGN "tomkeddie_top_tto_a"
*DATE "11:11:11 Fri 11 11, 1111"
*VENDOR "OpenRCX"
*PROGRAM "Parallel Extraction"
*VERSION "1.0"
*DESIGN_FLOW "NAME_SCOPE LOCAL" "PIN_CAP NONE"
*DIVIDER /
*DELIMITER :
*BUS_DELIMITER []
*T_UNIT 1 NS
*C_UNIT 1 PF
*R_UNIT 1 OHM
*L_UNIT 1 HENRY

*NAME_MAP
*1 io_in[0]
*2 io_in[1]
*3 io_in[2]
*4 io_in[3]
*5 io_in[4]
*6 io_in[5]
*7 io_in[6]
*8 io_in[7]
*9 io_out[0]
*10 io_out[1]
*11 io_out[2]
*12 io_out[3]
*13 io_out[4]
*14 io_out[5]
*15 io_out[6]
*16 io_out[7]
*19 _000_
*20 _001_
*21 _002_
*22 _003_
*23 _004_
*24 _005_
*25 _006_
*26 _008_
*27 _009_
*28 _010_
*29 _011_
*30 _012_
*31 _013_
*32 _014_
*33 _015_
*34 _016_
*35 _017_
*36 _018_
*37 _019_
*38 _020_
*39 _021_
*40 _022_
*41 _023_
*42 _024_
*43 _025_
*44 _026_
*45 _027_
*46 _028_
*47 _029_
*48 _030_
*49 _031_
*50 _032_
*51 _033_
*52 _034_
*53 _035_
*54 _036_
*55 _037_
*56 _038_
*57 _039_
*58 _040_
*59 _041_
*60 _042_
*61 _043_
*62 _044_
*63 _045_
*64 _046_
*65 _047_
*66 _048_
*67 _049_
*68 _050_
*69 _051_
*70 _052_
*71 _053_
*72 _054_
*73 _055_
*74 _056_
*75 _057_
*76 _058_
*77 _059_
*78 _060_
*79 _061_
*80 _062_
*81 _063_
*82 _064_
*83 _065_
*84 _066_
*85 _067_
*86 _068_
*87 _069_
*88 _070_
*89 _071_
*90 _072_
*91 _073_
*92 _074_
*93 _075_
*94 _076_
*95 _077_
*96 _078_
*97 _079_
*98 _080_
*99 _081_
*100 _082_
*101 _083_
*102 _084_
*103 _085_
*104 _086_
*105 _087_
*106 _088_
*107 _089_
*108 _090_
*109 _091_
*110 _092_
*111 _093_
*112 _094_
*113 _095_
*114 _096_
*115 _097_
*116 _098_
*117 _099_
*118 _100_
*119 _101_
*120 _102_
*121 _103_
*122 _104_
*123 _105_
*124 _106_
*125 _107_
*126 _108_
*127 _109_
*128 _110_
*129 _111_
*130 _112_
*131 _113_
*132 _114_
*133 _115_
*134 _116_
*135 _117_
*136 _118_
*137 _119_
*138 _120_
*139 _121_
*140 _122_
*141 _123_
*142 _124_
*143 _125_
*144 _126_
*145 _127_
*146 _128_
*147 _129_
*148 _130_
*149 _131_
*150 _132_
*151 _133_
*152 _134_
*153 _135_
*154 _136_
*155 _137_
*156 _138_
*157 _139_
*158 _140_
*159 _141_
*160 _142_
*161 _143_
*162 _144_
*163 _145_
*164 _146_
*165 _147_
*166 _148_
*167 _149_
*168 _150_
*169 _151_
*170 _152_
*171 _153_
*172 _154_
*173 _155_
*174 _156_
*175 _157_
*176 _158_
*177 _159_
*178 _160_
*179 _161_
*180 _162_
*181 _163_
*182 _164_
*183 _165_
*184 _166_
*185 _167_
*186 _168_
*187 _169_
*188 _170_
*189 _171_
*190 _172_
*191 _173_
*192 _174_
*193 _175_
*194 _176_
*195 _177_
*196 _178_
*197 _179_
*198 _180_
*199 _181_
*200 _182_
*201 _183_
*202 _184_
*203 _185_
*204 _186_
*205 _187_
*206 _188_
*207 clknet_0_io_in[0]
*208 clknet_2_0__leaf_io_in[0]
*209 clknet_2_1__leaf_io_in[0]
*210 clknet_2_2__leaf_io_in[0]
*211 clknet_2_3__leaf_io_in[0]
*212 net1
*213 net2
*214 top\.aclk
*215 top\.arst
*216 top\.blank
*217 top\.blue
*218 top\.col_cnt\[0\]
*219 top\.col_cnt\[1\]
*220 top\.col_cnt\[2\]
*221 top\.col_cnt\[3\]
*222 top\.col_cnt\[4\]
*223 top\.col_cnt\[5\]
*224 top\.green
*225 top\.latch
*226 top\.latch_out
*227 top\.led_data_state\[0\]
*228 top\.led_data_state\[1\]
*229 top\.led_data_state\[2\]
*230 top\.led_data_state\[3\]
*231 top\.led_data_state\[4\]
*232 top\.led_data_state\[5\]
*233 top\.led_data_state\[6\]
*234 top\.red
*235 top\.rgb\[0\]
*236 top\.rgb\[1\]
*237 top\.rgb\[2\]
*238 top\.row_cnt\[0\]
*239 top\.row_cnt\[1\]
*240 top\.sclk
*241 top\.uart_rx\.r_Bit_Index\[0\]
*242 top\.uart_rx\.r_Bit_Index\[1\]
*243 top\.uart_rx\.r_Bit_Index\[2\]
*244 top\.uart_rx\.r_Clock_Count\[0\]
*245 top\.uart_rx\.r_Clock_Count\[1\]
*246 top\.uart_rx\.r_Clock_Count\[2\]
*247 top\.uart_rx\.r_Clock_Count\[3\]
*248 top\.uart_rx\.r_Clock_Count\[4\]
*249 top\.uart_rx\.r_Clock_Count\[5\]
*250 top\.uart_rx\.r_Clock_Count\[6\]
*251 top\.uart_rx\.r_Clock_Count\[7\]
*252 top\.uart_rx\.r_Rx_Byte\[0\]
*253 top\.uart_rx\.r_Rx_Byte\[1\]
*254 top\.uart_rx\.r_Rx_Byte\[2\]
*255 top\.uart_rx\.r_Rx_Byte\[4\]
*256 top\.uart_rx\.r_Rx_Byte\[5\]
*257 top\.uart_rx\.r_Rx_Byte\[6\]
*258 top\.uart_rx\.r_Rx_Byte\[7\]
*259 top\.uart_rx\.r_Rx_DV
*260 top\.uart_rx\.r_SM_Main\[0\]
*261 top\.uart_rx\.r_SM_Main\[1\]
*262 top\.uart_rx\.r_SM_Main\[2\]
*263 FILLER_0_109
*264 FILLER_0_113
*265 FILLER_0_125
*266 FILLER_0_137
*267 FILLER_0_141
*268 FILLER_0_15
*269 FILLER_0_153
*270 FILLER_0_165
*271 FILLER_0_169
*272 FILLER_0_181
*273 FILLER_0_193
*274 FILLER_0_197
*275 FILLER_0_209
*276 FILLER_0_221
*277 FILLER_0_225
*278 FILLER_0_237
*279 FILLER_0_249
*280 FILLER_0_253
*281 FILLER_0_265
*282 FILLER_0_27
*283 FILLER_0_277
*284 FILLER_0_281
*285 FILLER_0_29
*286 FILLER_0_293
*287 FILLER_0_3
*288 FILLER_0_41
*289 FILLER_0_53
*290 FILLER_0_57
*291 FILLER_0_69
*292 FILLER_0_81
*293 FILLER_0_85
*294 FILLER_0_97
*295 FILLER_10_109
*296 FILLER_10_121
*297 FILLER_10_133
*298 FILLER_10_139
*299 FILLER_10_141
*300 FILLER_10_153
*301 FILLER_10_165
*302 FILLER_10_177
*303 FILLER_10_189
*304 FILLER_10_195
*305 FILLER_10_197
*306 FILLER_10_209
*307 FILLER_10_21
*308 FILLER_10_221
*309 FILLER_10_233
*310 FILLER_10_245
*311 FILLER_10_251
*312 FILLER_10_253
*313 FILLER_10_265
*314 FILLER_10_27
*315 FILLER_10_277
*316 FILLER_10_289
*317 FILLER_10_29
*318 FILLER_10_297
*319 FILLER_10_3
*320 FILLER_10_38
*321 FILLER_10_50
*322 FILLER_10_62
*323 FILLER_10_74
*324 FILLER_10_82
*325 FILLER_10_85
*326 FILLER_10_97
*327 FILLER_11_105
*328 FILLER_11_111
*329 FILLER_11_113
*330 FILLER_11_125
*331 FILLER_11_137
*332 FILLER_11_14
*333 FILLER_11_149
*334 FILLER_11_161
*335 FILLER_11_167
*336 FILLER_11_169
*337 FILLER_11_181
*338 FILLER_11_19
*339 FILLER_11_193
*340 FILLER_11_205
*341 FILLER_11_217
*342 FILLER_11_223
*343 FILLER_11_225
*344 FILLER_11_237
*345 FILLER_11_249
*346 FILLER_11_261
*347 FILLER_11_273
*348 FILLER_11_279
*349 FILLER_11_281
*350 FILLER_11_293
*351 FILLER_11_3
*352 FILLER_11_35
*353 FILLER_11_41
*354 FILLER_11_49
*355 FILLER_11_55
*356 FILLER_11_57
*357 FILLER_11_69
*358 FILLER_11_8
*359 FILLER_11_81
*360 FILLER_11_93
*361 FILLER_12_109
*362 FILLER_12_121
*363 FILLER_12_133
*364 FILLER_12_139
*365 FILLER_12_141
*366 FILLER_12_153
*367 FILLER_12_165
*368 FILLER_12_17
*369 FILLER_12_177
*370 FILLER_12_189
*371 FILLER_12_195
*372 FILLER_12_197
*373 FILLER_12_209
*374 FILLER_12_221
*375 FILLER_12_233
*376 FILLER_12_245
*377 FILLER_12_251
*378 FILLER_12_253
*379 FILLER_12_26
*380 FILLER_12_265
*381 FILLER_12_277
*382 FILLER_12_289
*383 FILLER_12_29
*384 FILLER_12_297
*385 FILLER_12_3
*386 FILLER_12_38
*387 FILLER_12_55
*388 FILLER_12_62
*389 FILLER_12_7
*390 FILLER_12_74
*391 FILLER_12_82
*392 FILLER_12_85
*393 FILLER_12_97
*394 FILLER_13_102
*395 FILLER_13_110
*396 FILLER_13_113
*397 FILLER_13_125
*398 FILLER_13_137
*399 FILLER_13_149
*400 FILLER_13_16
*401 FILLER_13_161
*402 FILLER_13_167
*403 FILLER_13_169
*404 FILLER_13_181
*405 FILLER_13_193
*406 FILLER_13_205
*407 FILLER_13_217
*408 FILLER_13_223
*409 FILLER_13_225
*410 FILLER_13_237
*411 FILLER_13_249
*412 FILLER_13_25
*413 FILLER_13_261
*414 FILLER_13_273
*415 FILLER_13_279
*416 FILLER_13_281
*417 FILLER_13_293
*418 FILLER_13_3
*419 FILLER_13_31
*420 FILLER_13_38
*421 FILLER_13_48
*422 FILLER_13_57
*423 FILLER_13_66
*424 FILLER_13_78
*425 FILLER_13_9
*426 FILLER_13_90
*427 FILLER_14_109
*428 FILLER_14_121
*429 FILLER_14_133
*430 FILLER_14_139
*431 FILLER_14_141
*432 FILLER_14_153
*433 FILLER_14_165
*434 FILLER_14_177
*435 FILLER_14_189
*436 FILLER_14_195
*437 FILLER_14_197
*438 FILLER_14_209
*439 FILLER_14_21
*440 FILLER_14_221
*441 FILLER_14_233
*442 FILLER_14_245
*443 FILLER_14_251
*444 FILLER_14_253
*445 FILLER_14_265
*446 FILLER_14_27
*447 FILLER_14_277
*448 FILLER_14_289
*449 FILLER_14_29
*450 FILLER_14_297
*451 FILLER_14_3
*452 FILLER_14_36
*453 FILLER_14_65
*454 FILLER_14_77
*455 FILLER_14_83
*456 FILLER_14_85
*457 FILLER_14_97
*458 FILLER_15_102
*459 FILLER_15_110
*460 FILLER_15_113
*461 FILLER_15_12
*462 FILLER_15_125
*463 FILLER_15_137
*464 FILLER_15_149
*465 FILLER_15_161
*466 FILLER_15_167
*467 FILLER_15_169
*468 FILLER_15_181
*469 FILLER_15_193
*470 FILLER_15_205
*471 FILLER_15_217
*472 FILLER_15_223
*473 FILLER_15_225
*474 FILLER_15_237
*475 FILLER_15_24
*476 FILLER_15_249
*477 FILLER_15_261
*478 FILLER_15_273
*479 FILLER_15_279
*480 FILLER_15_281
*481 FILLER_15_293
*482 FILLER_15_3
*483 FILLER_15_30
*484 FILLER_15_48
*485 FILLER_15_57
*486 FILLER_15_66
*487 FILLER_15_78
*488 FILLER_15_90
*489 FILLER_16_109
*490 FILLER_16_121
*491 FILLER_16_133
*492 FILLER_16_139
*493 FILLER_16_141
*494 FILLER_16_153
*495 FILLER_16_165
*496 FILLER_16_177
*497 FILLER_16_189
*498 FILLER_16_195
*499 FILLER_16_197
*500 FILLER_16_209
*501 FILLER_16_221
*502 FILLER_16_233
*503 FILLER_16_245
*504 FILLER_16_251
*505 FILLER_16_253
*506 FILLER_16_26
*507 FILLER_16_265
*508 FILLER_16_277
*509 FILLER_16_289
*510 FILLER_16_29
*511 FILLER_16_297
*512 FILLER_16_3
*513 FILLER_16_33
*514 FILLER_16_41
*515 FILLER_16_65
*516 FILLER_16_77
*517 FILLER_16_83
*518 FILLER_16_85
*519 FILLER_16_9
*520 FILLER_16_97
*521 FILLER_17_111
*522 FILLER_17_113
*523 FILLER_17_125
*524 FILLER_17_137
*525 FILLER_17_149
*526 FILLER_17_15
*527 FILLER_17_161
*528 FILLER_17_167
*529 FILLER_17_169
*530 FILLER_17_181
*531 FILLER_17_193
*532 FILLER_17_205
*533 FILLER_17_217
*534 FILLER_17_223
*535 FILLER_17_225
*536 FILLER_17_237
*537 FILLER_17_249
*538 FILLER_17_261
*539 FILLER_17_273
*540 FILLER_17_279
*541 FILLER_17_281
*542 FILLER_17_293
*543 FILLER_17_3
*544 FILLER_17_36
*545 FILLER_17_45
*546 FILLER_17_53
*547 FILLER_17_57
*548 FILLER_17_75
*549 FILLER_17_87
*550 FILLER_17_99
*551 FILLER_18_109
*552 FILLER_18_121
*553 FILLER_18_133
*554 FILLER_18_139
*555 FILLER_18_141
*556 FILLER_18_15
*557 FILLER_18_153
*558 FILLER_18_165
*559 FILLER_18_177
*560 FILLER_18_189
*561 FILLER_18_195
*562 FILLER_18_197
*563 FILLER_18_209
*564 FILLER_18_221
*565 FILLER_18_233
*566 FILLER_18_245
*567 FILLER_18_251
*568 FILLER_18_253
*569 FILLER_18_26
*570 FILLER_18_265
*571 FILLER_18_277
*572 FILLER_18_289
*573 FILLER_18_29
*574 FILLER_18_297
*575 FILLER_18_3
*576 FILLER_18_34
*577 FILLER_18_46
*578 FILLER_18_60
*579 FILLER_18_67
*580 FILLER_18_79
*581 FILLER_18_83
*582 FILLER_18_85
*583 FILLER_18_97
*584 FILLER_19_102
*585 FILLER_19_110
*586 FILLER_19_113
*587 FILLER_19_125
*588 FILLER_19_137
*589 FILLER_19_149
*590 FILLER_19_15
*591 FILLER_19_161
*592 FILLER_19_167
*593 FILLER_19_169
*594 FILLER_19_181
*595 FILLER_19_193
*596 FILLER_19_205
*597 FILLER_19_217
*598 FILLER_19_223
*599 FILLER_19_225
*600 FILLER_19_237
*601 FILLER_19_249
*602 FILLER_19_261
*603 FILLER_19_273
*604 FILLER_19_279
*605 FILLER_19_281
*606 FILLER_19_293
*607 FILLER_19_3
*608 FILLER_19_44
*609 FILLER_19_53
*610 FILLER_19_57
*611 FILLER_19_66
*612 FILLER_19_78
*613 FILLER_19_90
*614 FILLER_1_105
*615 FILLER_1_111
*616 FILLER_1_113
*617 FILLER_1_125
*618 FILLER_1_137
*619 FILLER_1_149
*620 FILLER_1_15
*621 FILLER_1_161
*622 FILLER_1_167
*623 FILLER_1_169
*624 FILLER_1_181
*625 FILLER_1_193
*626 FILLER_1_205
*627 FILLER_1_217
*628 FILLER_1_223
*629 FILLER_1_225
*630 FILLER_1_237
*631 FILLER_1_249
*632 FILLER_1_261
*633 FILLER_1_27
*634 FILLER_1_273
*635 FILLER_1_279
*636 FILLER_1_281
*637 FILLER_1_293
*638 FILLER_1_3
*639 FILLER_1_39
*640 FILLER_1_51
*641 FILLER_1_55
*642 FILLER_1_57
*643 FILLER_1_69
*644 FILLER_1_81
*645 FILLER_1_93
*646 FILLER_20_109
*647 FILLER_20_121
*648 FILLER_20_133
*649 FILLER_20_139
*650 FILLER_20_141
*651 FILLER_20_15
*652 FILLER_20_153
*653 FILLER_20_165
*654 FILLER_20_177
*655 FILLER_20_189
*656 FILLER_20_195
*657 FILLER_20_197
*658 FILLER_20_209
*659 FILLER_20_221
*660 FILLER_20_233
*661 FILLER_20_245
*662 FILLER_20_251
*663 FILLER_20_253
*664 FILLER_20_265
*665 FILLER_20_27
*666 FILLER_20_277
*667 FILLER_20_289
*668 FILLER_20_29
*669 FILLER_20_297
*670 FILLER_20_3
*671 FILLER_20_37
*672 FILLER_20_43
*673 FILLER_20_71
*674 FILLER_20_83
*675 FILLER_20_85
*676 FILLER_20_97
*677 FILLER_21_107
*678 FILLER_21_111
*679 FILLER_21_113
*680 FILLER_21_125
*681 FILLER_21_137
*682 FILLER_21_149
*683 FILLER_21_15
*684 FILLER_21_161
*685 FILLER_21_167
*686 FILLER_21_169
*687 FILLER_21_181
*688 FILLER_21_193
*689 FILLER_21_205
*690 FILLER_21_217
*691 FILLER_21_223
*692 FILLER_21_225
*693 FILLER_21_237
*694 FILLER_21_249
*695 FILLER_21_261
*696 FILLER_21_273
*697 FILLER_21_279
*698 FILLER_21_281
*699 FILLER_21_293
*700 FILLER_21_3
*701 FILLER_21_35
*702 FILLER_21_39
*703 FILLER_21_47
*704 FILLER_21_54
*705 FILLER_21_57
*706 FILLER_21_64
*707 FILLER_21_71
*708 FILLER_21_83
*709 FILLER_21_95
*710 FILLER_22_109
*711 FILLER_22_121
*712 FILLER_22_133
*713 FILLER_22_139
*714 FILLER_22_141
*715 FILLER_22_15
*716 FILLER_22_153
*717 FILLER_22_165
*718 FILLER_22_177
*719 FILLER_22_189
*720 FILLER_22_195
*721 FILLER_22_197
*722 FILLER_22_209
*723 FILLER_22_221
*724 FILLER_22_233
*725 FILLER_22_245
*726 FILLER_22_251
*727 FILLER_22_253
*728 FILLER_22_26
*729 FILLER_22_265
*730 FILLER_22_277
*731 FILLER_22_289
*732 FILLER_22_29
*733 FILLER_22_297
*734 FILLER_22_3
*735 FILLER_22_35
*736 FILLER_22_55
*737 FILLER_22_63
*738 FILLER_22_71
*739 FILLER_22_78
*740 FILLER_22_85
*741 FILLER_22_97
*742 FILLER_23_104
*743 FILLER_23_113
*744 FILLER_23_125
*745 FILLER_23_137
*746 FILLER_23_149
*747 FILLER_23_15
*748 FILLER_23_161
*749 FILLER_23_167
*750 FILLER_23_169
*751 FILLER_23_181
*752 FILLER_23_193
*753 FILLER_23_205
*754 FILLER_23_21
*755 FILLER_23_217
*756 FILLER_23_223
*757 FILLER_23_225
*758 FILLER_23_237
*759 FILLER_23_249
*760 FILLER_23_25
*761 FILLER_23_261
*762 FILLER_23_273
*763 FILLER_23_279
*764 FILLER_23_281
*765 FILLER_23_293
*766 FILLER_23_3
*767 FILLER_23_38
*768 FILLER_23_49
*769 FILLER_23_55
*770 FILLER_23_57
*771 FILLER_23_63
*772 FILLER_23_80
*773 FILLER_23_92
*774 FILLER_24_109
*775 FILLER_24_11
*776 FILLER_24_121
*777 FILLER_24_133
*778 FILLER_24_139
*779 FILLER_24_141
*780 FILLER_24_153
*781 FILLER_24_16
*782 FILLER_24_165
*783 FILLER_24_177
*784 FILLER_24_189
*785 FILLER_24_195
*786 FILLER_24_197
*787 FILLER_24_209
*788 FILLER_24_221
*789 FILLER_24_233
*790 FILLER_24_245
*791 FILLER_24_251
*792 FILLER_24_253
*793 FILLER_24_26
*794 FILLER_24_265
*795 FILLER_24_277
*796 FILLER_24_289
*797 FILLER_24_29
*798 FILLER_24_297
*799 FILLER_24_3
*800 FILLER_24_42
*801 FILLER_24_62
*802 FILLER_24_73
*803 FILLER_24_82
*804 FILLER_24_85
*805 FILLER_24_97
*806 FILLER_25_109
*807 FILLER_25_113
*808 FILLER_25_125
*809 FILLER_25_137
*810 FILLER_25_149
*811 FILLER_25_15
*812 FILLER_25_161
*813 FILLER_25_167
*814 FILLER_25_169
*815 FILLER_25_181
*816 FILLER_25_193
*817 FILLER_25_205
*818 FILLER_25_217
*819 FILLER_25_223
*820 FILLER_25_225
*821 FILLER_25_237
*822 FILLER_25_249
*823 FILLER_25_261
*824 FILLER_25_273
*825 FILLER_25_279
*826 FILLER_25_281
*827 FILLER_25_293
*828 FILLER_25_3
*829 FILLER_25_35
*830 FILLER_25_39
*831 FILLER_25_43
*832 FILLER_25_54
*833 FILLER_25_57
*834 FILLER_25_76
*835 FILLER_25_85
*836 FILLER_25_97
*837 FILLER_26_109
*838 FILLER_26_121
*839 FILLER_26_133
*840 FILLER_26_139
*841 FILLER_26_141
*842 FILLER_26_15
*843 FILLER_26_153
*844 FILLER_26_165
*845 FILLER_26_177
*846 FILLER_26_189
*847 FILLER_26_195
*848 FILLER_26_197
*849 FILLER_26_209
*850 FILLER_26_221
*851 FILLER_26_233
*852 FILLER_26_245
*853 FILLER_26_251
*854 FILLER_26_253
*855 FILLER_26_265
*856 FILLER_26_27
*857 FILLER_26_277
*858 FILLER_26_289
*859 FILLER_26_29
*860 FILLER_26_297
*861 FILLER_26_3
*862 FILLER_26_33
*863 FILLER_26_39
*864 FILLER_26_63
*865 FILLER_26_74
*866 FILLER_26_82
*867 FILLER_26_85
*868 FILLER_26_97
*869 FILLER_27_111
*870 FILLER_27_113
*871 FILLER_27_125
*872 FILLER_27_137
*873 FILLER_27_149
*874 FILLER_27_15
*875 FILLER_27_161
*876 FILLER_27_167
*877 FILLER_27_169
*878 FILLER_27_181
*879 FILLER_27_193
*880 FILLER_27_205
*881 FILLER_27_217
*882 FILLER_27_223
*883 FILLER_27_225
*884 FILLER_27_237
*885 FILLER_27_249
*886 FILLER_27_261
*887 FILLER_27_273
*888 FILLER_27_279
*889 FILLER_27_281
*890 FILLER_27_293
*891 FILLER_27_3
*892 FILLER_27_35
*893 FILLER_27_46
*894 FILLER_27_53
*895 FILLER_27_57
*896 FILLER_27_75
*897 FILLER_27_87
*898 FILLER_27_99
*899 FILLER_28_109
*900 FILLER_28_11
*901 FILLER_28_121
*902 FILLER_28_133
*903 FILLER_28_139
*904 FILLER_28_141
*905 FILLER_28_153
*906 FILLER_28_165
*907 FILLER_28_17
*908 FILLER_28_177
*909 FILLER_28_189
*910 FILLER_28_195
*911 FILLER_28_197
*912 FILLER_28_209
*913 FILLER_28_221
*914 FILLER_28_233
*915 FILLER_28_245
*916 FILLER_28_251
*917 FILLER_28_253
*918 FILLER_28_26
*919 FILLER_28_265
*920 FILLER_28_277
*921 FILLER_28_289
*922 FILLER_28_29
*923 FILLER_28_297
*924 FILLER_28_3
*925 FILLER_28_35
*926 FILLER_28_43
*927 FILLER_28_63
*928 FILLER_28_75
*929 FILLER_28_83
*930 FILLER_28_85
*931 FILLER_28_97
*932 FILLER_29_102
*933 FILLER_29_11
*934 FILLER_29_110
*935 FILLER_29_113
*936 FILLER_29_125
*937 FILLER_29_137
*938 FILLER_29_149
*939 FILLER_29_161
*940 FILLER_29_167
*941 FILLER_29_169
*942 FILLER_29_181
*943 FILLER_29_193
*944 FILLER_29_205
*945 FILLER_29_217
*946 FILLER_29_223
*947 FILLER_29_225
*948 FILLER_29_237
*949 FILLER_29_249
*950 FILLER_29_261
*951 FILLER_29_273
*952 FILLER_29_279
*953 FILLER_29_281
*954 FILLER_29_293
*955 FILLER_29_3
*956 FILLER_29_30
*957 FILLER_29_50
*958 FILLER_29_57
*959 FILLER_29_66
*960 FILLER_29_78
*961 FILLER_29_90
*962 FILLER_2_109
*963 FILLER_2_121
*964 FILLER_2_133
*965 FILLER_2_139
*966 FILLER_2_141
*967 FILLER_2_15
*968 FILLER_2_153
*969 FILLER_2_165
*970 FILLER_2_177
*971 FILLER_2_189
*972 FILLER_2_195
*973 FILLER_2_197
*974 FILLER_2_209
*975 FILLER_2_221
*976 FILLER_2_233
*977 FILLER_2_245
*978 FILLER_2_251
*979 FILLER_2_253
*980 FILLER_2_265
*981 FILLER_2_27
*982 FILLER_2_277
*983 FILLER_2_289
*984 FILLER_2_29
*985 FILLER_2_297
*986 FILLER_2_3
*987 FILLER_2_47
*988 FILLER_2_59
*989 FILLER_2_71
*990 FILLER_2_83
*991 FILLER_2_85
*992 FILLER_2_97
*993 FILLER_30_109
*994 FILLER_30_121
*995 FILLER_30_133
*996 FILLER_30_139
*997 FILLER_30_141
*998 FILLER_30_153
*999 FILLER_30_165
*1000 FILLER_30_177
*1001 FILLER_30_189
*1002 FILLER_30_195
*1003 FILLER_30_197
*1004 FILLER_30_209
*1005 FILLER_30_21
*1006 FILLER_30_221
*1007 FILLER_30_233
*1008 FILLER_30_245
*1009 FILLER_30_251
*1010 FILLER_30_253
*1011 FILLER_30_265
*1012 FILLER_30_27
*1013 FILLER_30_277
*1014 FILLER_30_289
*1015 FILLER_30_29
*1016 FILLER_30_297
*1017 FILLER_30_3
*1018 FILLER_30_40
*1019 FILLER_30_44
*1020 FILLER_30_65
*1021 FILLER_30_77
*1022 FILLER_30_83
*1023 FILLER_30_85
*1024 FILLER_30_97
*1025 FILLER_31_105
*1026 FILLER_31_111
*1027 FILLER_31_113
*1028 FILLER_31_12
*1029 FILLER_31_125
*1030 FILLER_31_137
*1031 FILLER_31_149
*1032 FILLER_31_161
*1033 FILLER_31_167
*1034 FILLER_31_169
*1035 FILLER_31_181
*1036 FILLER_31_193
*1037 FILLER_31_205
*1038 FILLER_31_217
*1039 FILLER_31_223
*1040 FILLER_31_225
*1041 FILLER_31_237
*1042 FILLER_31_249
*1043 FILLER_31_261
*1044 FILLER_31_273
*1045 FILLER_31_279
*1046 FILLER_31_281
*1047 FILLER_31_293
*1048 FILLER_31_3
*1049 FILLER_31_36
*1050 FILLER_31_49
*1051 FILLER_31_55
*1052 FILLER_31_57
*1053 FILLER_31_69
*1054 FILLER_31_7
*1055 FILLER_31_81
*1056 FILLER_31_93
*1057 FILLER_32_109
*1058 FILLER_32_121
*1059 FILLER_32_133
*1060 FILLER_32_139
*1061 FILLER_32_141
*1062 FILLER_32_15
*1063 FILLER_32_153
*1064 FILLER_32_165
*1065 FILLER_32_177
*1066 FILLER_32_189
*1067 FILLER_32_195
*1068 FILLER_32_197
*1069 FILLER_32_20
*1070 FILLER_32_209
*1071 FILLER_32_221
*1072 FILLER_32_233
*1073 FILLER_32_245
*1074 FILLER_32_251
*1075 FILLER_32_253
*1076 FILLER_32_265
*1077 FILLER_32_277
*1078 FILLER_32_289
*1079 FILLER_32_29
*1080 FILLER_32_297
*1081 FILLER_32_3
*1082 FILLER_32_33
*1083 FILLER_32_50
*1084 FILLER_32_63
*1085 FILLER_32_75
*1086 FILLER_32_83
*1087 FILLER_32_85
*1088 FILLER_32_9
*1089 FILLER_32_97
*1090 FILLER_33_111
*1091 FILLER_33_113
*1092 FILLER_33_125
*1093 FILLER_33_137
*1094 FILLER_33_149
*1095 FILLER_33_161
*1096 FILLER_33_167
*1097 FILLER_33_169
*1098 FILLER_33_17
*1099 FILLER_33_181
*1100 FILLER_33_193
*1101 FILLER_33_205
*1102 FILLER_33_217
*1103 FILLER_33_22
*1104 FILLER_33_223
*1105 FILLER_33_225
*1106 FILLER_33_237
*1107 FILLER_33_249
*1108 FILLER_33_261
*1109 FILLER_33_273
*1110 FILLER_33_279
*1111 FILLER_33_281
*1112 FILLER_33_293
*1113 FILLER_33_3
*1114 FILLER_33_34
*1115 FILLER_33_38
*1116 FILLER_33_44
*1117 FILLER_33_48
*1118 FILLER_33_54
*1119 FILLER_33_57
*1120 FILLER_33_75
*1121 FILLER_33_87
*1122 FILLER_33_9
*1123 FILLER_33_99
*1124 FILLER_34_109
*1125 FILLER_34_121
*1126 FILLER_34_133
*1127 FILLER_34_139
*1128 FILLER_34_141
*1129 FILLER_34_153
*1130 FILLER_34_165
*1131 FILLER_34_177
*1132 FILLER_34_189
*1133 FILLER_34_195
*1134 FILLER_34_197
*1135 FILLER_34_209
*1136 FILLER_34_21
*1137 FILLER_34_221
*1138 FILLER_34_233
*1139 FILLER_34_245
*1140 FILLER_34_251
*1141 FILLER_34_253
*1142 FILLER_34_265
*1143 FILLER_34_27
*1144 FILLER_34_277
*1145 FILLER_34_289
*1146 FILLER_34_29
*1147 FILLER_34_297
*1148 FILLER_34_3
*1149 FILLER_34_39
*1150 FILLER_34_46
*1151 FILLER_34_50
*1152 FILLER_34_54
*1153 FILLER_34_61
*1154 FILLER_34_73
*1155 FILLER_34_81
*1156 FILLER_34_85
*1157 FILLER_34_97
*1158 FILLER_35_101
*1159 FILLER_35_109
*1160 FILLER_35_113
*1161 FILLER_35_125
*1162 FILLER_35_137
*1163 FILLER_35_149
*1164 FILLER_35_15
*1165 FILLER_35_161
*1166 FILLER_35_167
*1167 FILLER_35_169
*1168 FILLER_35_181
*1169 FILLER_35_193
*1170 FILLER_35_205
*1171 FILLER_35_217
*1172 FILLER_35_22
*1173 FILLER_35_223
*1174 FILLER_35_225
*1175 FILLER_35_237
*1176 FILLER_35_249
*1177 FILLER_35_261
*1178 FILLER_35_273
*1179 FILLER_35_279
*1180 FILLER_35_281
*1181 FILLER_35_293
*1182 FILLER_35_3
*1183 FILLER_35_34
*1184 FILLER_35_54
*1185 FILLER_35_57
*1186 FILLER_35_61
*1187 FILLER_35_65
*1188 FILLER_35_71
*1189 FILLER_35_89
*1190 FILLER_35_9
*1191 FILLER_36_10
*1192 FILLER_36_107
*1193 FILLER_36_119
*1194 FILLER_36_131
*1195 FILLER_36_139
*1196 FILLER_36_141
*1197 FILLER_36_153
*1198 FILLER_36_165
*1199 FILLER_36_177
*1200 FILLER_36_18
*1201 FILLER_36_189
*1202 FILLER_36_195
*1203 FILLER_36_197
*1204 FILLER_36_209
*1205 FILLER_36_221
*1206 FILLER_36_233
*1207 FILLER_36_245
*1208 FILLER_36_251
*1209 FILLER_36_253
*1210 FILLER_36_26
*1211 FILLER_36_265
*1212 FILLER_36_277
*1213 FILLER_36_289
*1214 FILLER_36_29
*1215 FILLER_36_297
*1216 FILLER_36_3
*1217 FILLER_36_48
*1218 FILLER_36_56
*1219 FILLER_36_73
*1220 FILLER_36_81
*1221 FILLER_36_85
*1222 FILLER_36_95
*1223 FILLER_37_101
*1224 FILLER_37_109
*1225 FILLER_37_113
*1226 FILLER_37_125
*1227 FILLER_37_137
*1228 FILLER_37_149
*1229 FILLER_37_161
*1230 FILLER_37_167
*1231 FILLER_37_169
*1232 FILLER_37_181
*1233 FILLER_37_193
*1234 FILLER_37_205
*1235 FILLER_37_21
*1236 FILLER_37_217
*1237 FILLER_37_223
*1238 FILLER_37_225
*1239 FILLER_37_237
*1240 FILLER_37_249
*1241 FILLER_37_261
*1242 FILLER_37_273
*1243 FILLER_37_279
*1244 FILLER_37_28
*1245 FILLER_37_281
*1246 FILLER_37_293
*1247 FILLER_37_3
*1248 FILLER_37_38
*1249 FILLER_37_44
*1250 FILLER_37_50
*1251 FILLER_37_57
*1252 FILLER_37_63
*1253 FILLER_37_72
*1254 FILLER_37_78
*1255 FILLER_37_87
*1256 FILLER_37_93
*1257 FILLER_38_111
*1258 FILLER_38_123
*1259 FILLER_38_135
*1260 FILLER_38_139
*1261 FILLER_38_141
*1262 FILLER_38_153
*1263 FILLER_38_165
*1264 FILLER_38_177
*1265 FILLER_38_189
*1266 FILLER_38_195
*1267 FILLER_38_197
*1268 FILLER_38_209
*1269 FILLER_38_21
*1270 FILLER_38_221
*1271 FILLER_38_233
*1272 FILLER_38_245
*1273 FILLER_38_251
*1274 FILLER_38_253
*1275 FILLER_38_265
*1276 FILLER_38_27
*1277 FILLER_38_277
*1278 FILLER_38_289
*1279 FILLER_38_29
*1280 FILLER_38_297
*1281 FILLER_38_3
*1282 FILLER_38_35
*1283 FILLER_38_42
*1284 FILLER_38_52
*1285 FILLER_38_60
*1286 FILLER_38_64
*1287 FILLER_38_72
*1288 FILLER_38_85
*1289 FILLER_38_99
*1290 FILLER_39_106
*1291 FILLER_39_113
*1292 FILLER_39_125
*1293 FILLER_39_137
*1294 FILLER_39_149
*1295 FILLER_39_161
*1296 FILLER_39_167
*1297 FILLER_39_169
*1298 FILLER_39_17
*1299 FILLER_39_181
*1300 FILLER_39_193
*1301 FILLER_39_205
*1302 FILLER_39_217
*1303 FILLER_39_223
*1304 FILLER_39_225
*1305 FILLER_39_237
*1306 FILLER_39_249
*1307 FILLER_39_261
*1308 FILLER_39_273
*1309 FILLER_39_279
*1310 FILLER_39_281
*1311 FILLER_39_293
*1312 FILLER_39_3
*1313 FILLER_39_34
*1314 FILLER_39_38
*1315 FILLER_39_42
*1316 FILLER_39_54
*1317 FILLER_39_57
*1318 FILLER_39_61
*1319 FILLER_39_68
*1320 FILLER_39_72
*1321 FILLER_39_77
*1322 FILLER_39_85
*1323 FILLER_39_9
*1324 FILLER_39_94
*1325 FILLER_3_105
*1326 FILLER_3_111
*1327 FILLER_3_113
*1328 FILLER_3_125
*1329 FILLER_3_137
*1330 FILLER_3_149
*1331 FILLER_3_15
*1332 FILLER_3_161
*1333 FILLER_3_167
*1334 FILLER_3_169
*1335 FILLER_3_181
*1336 FILLER_3_193
*1337 FILLER_3_205
*1338 FILLER_3_217
*1339 FILLER_3_223
*1340 FILLER_3_225
*1341 FILLER_3_23
*1342 FILLER_3_237
*1343 FILLER_3_249
*1344 FILLER_3_261
*1345 FILLER_3_273
*1346 FILLER_3_279
*1347 FILLER_3_281
*1348 FILLER_3_29
*1349 FILLER_3_293
*1350 FILLER_3_3
*1351 FILLER_3_38
*1352 FILLER_3_46
*1353 FILLER_3_52
*1354 FILLER_3_57
*1355 FILLER_3_69
*1356 FILLER_3_81
*1357 FILLER_3_93
*1358 FILLER_40_106
*1359 FILLER_40_118
*1360 FILLER_40_130
*1361 FILLER_40_138
*1362 FILLER_40_141
*1363 FILLER_40_153
*1364 FILLER_40_165
*1365 FILLER_40_177
*1366 FILLER_40_189
*1367 FILLER_40_195
*1368 FILLER_40_197
*1369 FILLER_40_20
*1370 FILLER_40_209
*1371 FILLER_40_221
*1372 FILLER_40_233
*1373 FILLER_40_245
*1374 FILLER_40_251
*1375 FILLER_40_253
*1376 FILLER_40_265
*1377 FILLER_40_277
*1378 FILLER_40_289
*1379 FILLER_40_29
*1380 FILLER_40_297
*1381 FILLER_40_3
*1382 FILLER_40_37
*1383 FILLER_40_45
*1384 FILLER_40_55
*1385 FILLER_40_62
*1386 FILLER_40_8
*1387 FILLER_40_82
*1388 FILLER_40_85
*1389 FILLER_40_95
*1390 FILLER_41_107
*1391 FILLER_41_111
*1392 FILLER_41_113
*1393 FILLER_41_118
*1394 FILLER_41_130
*1395 FILLER_41_14
*1396 FILLER_41_142
*1397 FILLER_41_154
*1398 FILLER_41_166
*1399 FILLER_41_169
*1400 FILLER_41_181
*1401 FILLER_41_193
*1402 FILLER_41_205
*1403 FILLER_41_217
*1404 FILLER_41_223
*1405 FILLER_41_225
*1406 FILLER_41_23
*1407 FILLER_41_237
*1408 FILLER_41_249
*1409 FILLER_41_261
*1410 FILLER_41_273
*1411 FILLER_41_279
*1412 FILLER_41_281
*1413 FILLER_41_293
*1414 FILLER_41_3
*1415 FILLER_41_33
*1416 FILLER_41_40
*1417 FILLER_41_51
*1418 FILLER_41_55
*1419 FILLER_41_57
*1420 FILLER_41_70
*1421 FILLER_41_8
*1422 FILLER_41_82
*1423 FILLER_41_90
*1424 FILLER_41_99
*1425 FILLER_42_108
*1426 FILLER_42_120
*1427 FILLER_42_132
*1428 FILLER_42_141
*1429 FILLER_42_153
*1430 FILLER_42_165
*1431 FILLER_42_177
*1432 FILLER_42_189
*1433 FILLER_42_195
*1434 FILLER_42_197
*1435 FILLER_42_209
*1436 FILLER_42_21
*1437 FILLER_42_221
*1438 FILLER_42_233
*1439 FILLER_42_245
*1440 FILLER_42_251
*1441 FILLER_42_253
*1442 FILLER_42_265
*1443 FILLER_42_27
*1444 FILLER_42_277
*1445 FILLER_42_289
*1446 FILLER_42_29
*1447 FILLER_42_297
*1448 FILLER_42_3
*1449 FILLER_42_38
*1450 FILLER_42_44
*1451 FILLER_42_53
*1452 FILLER_42_61
*1453 FILLER_42_70
*1454 FILLER_42_78
*1455 FILLER_42_85
*1456 FILLER_42_99
*1457 FILLER_43_110
*1458 FILLER_43_113
*1459 FILLER_43_125
*1460 FILLER_43_137
*1461 FILLER_43_149
*1462 FILLER_43_161
*1463 FILLER_43_167
*1464 FILLER_43_169
*1465 FILLER_43_181
*1466 FILLER_43_193
*1467 FILLER_43_205
*1468 FILLER_43_217
*1469 FILLER_43_223
*1470 FILLER_43_225
*1471 FILLER_43_23
*1472 FILLER_43_237
*1473 FILLER_43_249
*1474 FILLER_43_261
*1475 FILLER_43_273
*1476 FILLER_43_279
*1477 FILLER_43_281
*1478 FILLER_43_293
*1479 FILLER_43_3
*1480 FILLER_43_31
*1481 FILLER_43_39
*1482 FILLER_43_51
*1483 FILLER_43_55
*1484 FILLER_43_57
*1485 FILLER_43_67
*1486 FILLER_43_87
*1487 FILLER_43_9
*1488 FILLER_43_99
*1489 FILLER_44_105
*1490 FILLER_44_112
*1491 FILLER_44_124
*1492 FILLER_44_136
*1493 FILLER_44_141
*1494 FILLER_44_153
*1495 FILLER_44_16
*1496 FILLER_44_165
*1497 FILLER_44_177
*1498 FILLER_44_189
*1499 FILLER_44_195
*1500 FILLER_44_197
*1501 FILLER_44_209
*1502 FILLER_44_22
*1503 FILLER_44_221
*1504 FILLER_44_233
*1505 FILLER_44_245
*1506 FILLER_44_251
*1507 FILLER_44_253
*1508 FILLER_44_26
*1509 FILLER_44_265
*1510 FILLER_44_277
*1511 FILLER_44_289
*1512 FILLER_44_29
*1513 FILLER_44_297
*1514 FILLER_44_3
*1515 FILLER_44_38
*1516 FILLER_44_48
*1517 FILLER_44_63
*1518 FILLER_44_72
*1519 FILLER_44_79
*1520 FILLER_44_83
*1521 FILLER_44_85
*1522 FILLER_44_9
*1523 FILLER_44_94
*1524 FILLER_45_102
*1525 FILLER_45_110
*1526 FILLER_45_113
*1527 FILLER_45_125
*1528 FILLER_45_137
*1529 FILLER_45_149
*1530 FILLER_45_161
*1531 FILLER_45_167
*1532 FILLER_45_169
*1533 FILLER_45_181
*1534 FILLER_45_193
*1535 FILLER_45_205
*1536 FILLER_45_217
*1537 FILLER_45_223
*1538 FILLER_45_225
*1539 FILLER_45_237
*1540 FILLER_45_24
*1541 FILLER_45_249
*1542 FILLER_45_261
*1543 FILLER_45_273
*1544 FILLER_45_279
*1545 FILLER_45_281
*1546 FILLER_45_293
*1547 FILLER_45_3
*1548 FILLER_45_31
*1549 FILLER_45_52
*1550 FILLER_45_57
*1551 FILLER_45_68
*1552 FILLER_45_7
*1553 FILLER_45_80
*1554 FILLER_45_85
*1555 FILLER_45_95
*1556 FILLER_46_104
*1557 FILLER_46_116
*1558 FILLER_46_128
*1559 FILLER_46_141
*1560 FILLER_46_153
*1561 FILLER_46_165
*1562 FILLER_46_177
*1563 FILLER_46_189
*1564 FILLER_46_195
*1565 FILLER_46_197
*1566 FILLER_46_209
*1567 FILLER_46_21
*1568 FILLER_46_221
*1569 FILLER_46_233
*1570 FILLER_46_245
*1571 FILLER_46_251
*1572 FILLER_46_253
*1573 FILLER_46_265
*1574 FILLER_46_27
*1575 FILLER_46_277
*1576 FILLER_46_289
*1577 FILLER_46_29
*1578 FILLER_46_297
*1579 FILLER_46_3
*1580 FILLER_46_37
*1581 FILLER_46_45
*1582 FILLER_46_63
*1583 FILLER_46_71
*1584 FILLER_46_79
*1585 FILLER_46_83
*1586 FILLER_46_85
*1587 FILLER_46_94
*1588 FILLER_47_102
*1589 FILLER_47_110
*1590 FILLER_47_113
*1591 FILLER_47_125
*1592 FILLER_47_13
*1593 FILLER_47_137
*1594 FILLER_47_149
*1595 FILLER_47_161
*1596 FILLER_47_167
*1597 FILLER_47_169
*1598 FILLER_47_181
*1599 FILLER_47_193
*1600 FILLER_47_205
*1601 FILLER_47_217
*1602 FILLER_47_223
*1603 FILLER_47_225
*1604 FILLER_47_237
*1605 FILLER_47_249
*1606 FILLER_47_261
*1607 FILLER_47_273
*1608 FILLER_47_279
*1609 FILLER_47_281
*1610 FILLER_47_293
*1611 FILLER_47_3
*1612 FILLER_47_35
*1613 FILLER_47_43
*1614 FILLER_47_47
*1615 FILLER_47_54
*1616 FILLER_47_57
*1617 FILLER_47_67
*1618 FILLER_47_83
*1619 FILLER_47_91
*1620 FILLER_48_110
*1621 FILLER_48_122
*1622 FILLER_48_134
*1623 FILLER_48_141
*1624 FILLER_48_153
*1625 FILLER_48_165
*1626 FILLER_48_177
*1627 FILLER_48_189
*1628 FILLER_48_195
*1629 FILLER_48_197