*SPEF "ieee 1481-1999"
*DESIGN "tomkeddie_top_tto_a"
*DATE "11:11:11 Fri 11 11, 1111"
*VENDOR "OpenRCX"
*PROGRAM "Parallel Extraction"
*VERSION "1.0"
*DESIGN_FLOW "NAME_SCOPE LOCAL" "PIN_CAP NONE"
*DIVIDER /
*DELIMITER :
*BUS_DELIMITER []
*T_UNIT 1 NS
*C_UNIT 1 PF
*R_UNIT 1 OHM
*L_UNIT 1 HENRY

*NAME_MAP
*1 io_in[0]
*2 io_in[1]
*3 io_in[2]
*4 io_in[3]
*5 io_in[4]
*6 io_in[5]
*7 io_in[6]
*8 io_in[7]
*9 io_out[0]
*10 io_out[1]
*11 io_out[2]
*12 io_out[3]
*13 io_out[4]
*14 io_out[5]
*15 io_out[6]
*16 io_out[7]
*19 _0000_
*20 _0001_
*21 _0002_
*22 _0003_
*23 _0004_
*24 _0005_
*25 _0006_
*26 _0007_
*27 _0008_
*28 _0009_
*29 _0010_
*30 _0011_
*31 _0012_
*32 _0013_
*33 _0014_
*34 _0015_
*35 _0016_
*36 _0017_
*37 _0018_
*38 _0019_
*39 _0020_
*40 _0021_
*41 _0022_
*42 _0023_
*43 _0024_
*44 _0025_
*45 _0026_
*46 _0027_
*47 _0028_
*48 _0029_
*49 _0030_
*50 _0031_
*51 _0032_
*52 _0033_
*53 _0034_
*54 _0035_
*55 _0036_
*56 _0037_
*57 _0038_
*58 _0039_
*59 _0040_
*60 _0041_
*61 _0042_
*62 _0043_
*63 _0044_
*64 _0045_
*65 _0046_
*66 _0047_
*67 _0048_
*68 _0049_
*69 _0050_
*70 _0051_
*71 _0052_
*72 _0053_
*73 _0054_
*74 _0055_
*75 _0056_
*76 _0057_
*77 _0058_
*78 _0059_
*79 _0060_
*80 _0061_
*81 _0062_
*82 _0063_
*83 _0064_
*84 _0065_
*85 _0066_
*86 _0067_
*87 _0068_
*88 _0069_
*89 _0070_
*90 _0071_
*91 _0072_
*92 _0073_
*93 _0074_
*94 _0075_
*95 _0076_
*96 _0077_
*97 _0078_
*98 _0079_
*99 _0080_
*100 _0081_
*101 _0082_
*102 _0083_
*103 _0084_
*104 _0085_
*105 _0086_
*106 _0087_
*107 _0088_
*108 _0089_
*109 _0090_
*110 _0091_
*111 _0092_
*112 _0093_
*113 _0094_
*114 _0095_
*115 _0096_
*116 _0097_
*117 _0098_
*118 _0099_
*119 _0100_
*120 _0101_
*121 _0102_
*122 _0103_
*123 _0104_
*124 _0105_
*125 _0106_
*126 _0107_
*127 _0108_
*128 _0109_
*129 _0110_
*130 _0111_
*131 _0112_
*132 _0113_
*133 _0114_
*134 _0115_
*135 _0116_
*136 _0117_
*137 _0118_
*138 _0119_
*139 _0120_
*140 _0121_
*141 _0122_
*142 _0123_
*143 _0124_
*144 _0125_
*145 _0126_
*146 _0127_
*147 _0128_
*148 _0129_
*149 _0130_
*150 _0131_
*151 _0132_
*152 _0133_
*153 _0134_
*154 _0135_
*155 _0136_
*156 _0137_
*157 _0138_
*158 _0139_
*159 _0140_
*160 _0141_
*161 _0142_
*162 _0143_
*163 _0144_
*164 _0145_
*165 _0146_
*166 _0147_
*167 _0148_
*168 _0149_
*169 _0150_
*170 _0151_
*171 _0152_
*172 _0153_
*173 _0154_
*174 _0155_
*175 _0156_
*176 _0157_
*177 _0158_
*178 _0159_
*179 _0160_
*180 _0161_
*181 _0162_
*182 _0163_
*183 _0164_
*184 _0165_
*185 _0166_
*186 _0167_
*187 _0168_
*188 _0169_
*189 _0170_
*190 _0171_
*191 _0172_
*192 _0173_
*193 _0174_
*194 _0175_
*195 _0176_
*196 _0177_
*197 _0178_
*198 _0179_
*199 _0180_
*200 _0181_
*201 _0182_
*202 _0183_
*203 _0184_
*204 _0185_
*205 _0186_
*206 _0187_
*207 _0188_
*208 _0189_
*209 _0190_
*210 _0191_
*211 _0192_
*212 _0193_
*213 _0194_
*214 _0195_
*215 _0196_
*216 _0197_
*217 _0198_
*218 _0199_
*219 _0200_
*220 _0201_
*221 _0202_
*222 _0203_
*223 _0204_
*224 _0205_
*225 _0206_
*226 _0207_
*227 _0208_
*228 _0209_
*229 _0210_
*230 _0211_
*231 _0212_
*232 _0213_
*233 _0214_
*234 _0215_
*235 _0216_
*236 _0217_
*237 _0218_
*238 _0219_
*239 _0220_
*240 _0221_
*241 _0222_
*242 _0223_
*243 _0224_
*244 _0225_
*245 _0226_
*246 _0227_
*247 _0228_
*248 _0229_
*249 _0230_
*250 _0231_
*251 _0232_
*252 _0233_
*253 _0234_
*254 _0235_
*255 _0236_
*256 _0237_
*257 _0238_
*258 _0239_
*259 _0240_
*260 _0241_
*261 _0242_
*262 _0243_
*263 _0244_
*264 _0245_
*265 _0246_
*266 _0247_
*267 _0248_
*268 _0249_
*269 _0250_
*270 _0251_
*271 _0252_
*272 _0253_
*273 _0254_
*274 _0255_
*275 _0256_
*276 _0257_
*277 _0258_
*278 _0259_
*279 _0260_
*280 _0261_
*281 _0262_
*282 _0263_
*283 _0264_
*284 _0265_
*285 _0266_
*286 _0267_
*287 _0268_
*288 _0269_
*289 _0270_
*290 _0271_
*291 _0272_
*292 _0273_
*293 _0274_
*294 _0275_
*295 _0276_
*296 _0277_
*297 _0278_
*298 _0279_
*299 _0280_
*300 _0281_
*301 _0282_
*302 _0283_
*303 _0284_
*304 _0285_
*305 _0286_
*306 _0287_
*307 _0288_
*308 _0289_
*309 _0290_
*310 _0291_
*311 _0292_
*312 _0293_
*313 _0294_
*314 _0295_
*315 _0296_
*316 _0297_
*317 _0298_
*318 _0299_
*319 _0300_
*320 _0301_
*321 _0302_
*322 _0303_
*323 _0304_
*324 _0305_
*325 _0306_
*326 _0307_
*327 _0308_
*328 _0309_
*329 _0310_
*330 _0311_
*331 _0312_
*332 _0313_
*333 _0314_
*334 _0315_
*335 _0316_
*336 _0317_
*337 _0318_
*338 _0319_
*339 _0320_
*340 _0321_
*341 _0322_
*342 _0323_
*343 _0324_
*344 _0325_
*345 _0326_
*346 _0327_
*347 _0328_
*348 _0329_
*349 _0330_
*350 _0331_
*351 _0332_
*352 _0333_
*353 _0334_
*354 _0335_
*355 _0336_
*356 _0337_
*357 _0338_
*358 _0339_
*359 _0340_
*360 _0341_
*361 _0342_
*362 _0343_
*363 _0344_
*364 _0345_
*365 _0346_
*366 _0347_
*367 _0348_
*368 _0349_
*369 _0350_
*370 _0351_
*371 _0352_
*372 _0353_
*373 _0354_
*374 _0355_
*375 _0356_
*376 _0357_
*377 _0358_
*378 _0359_
*379 _0360_
*380 _0361_
*381 _0362_
*382 _0363_
*383 _0364_
*384 _0365_
*385 _0366_
*386 _0367_
*387 _0368_
*388 _0369_
*389 _0370_
*390 _0371_
*391 _0372_
*392 _0373_
*393 _0374_
*394 _0375_
*395 _0376_
*396 _0377_
*397 _0378_
*398 _0379_
*399 _0380_
*400 _0381_
*401 _0382_
*402 _0383_
*403 _0384_
*404 _0385_
*405 _0386_
*406 _0387_
*407 _0388_
*408 _0389_
*409 _0390_
*410 _0391_
*411 _0392_
*412 _0393_
*413 _0394_
*414 _0395_
*415 _0396_
*416 _0397_
*417 _0398_
*418 _0399_
*419 _0400_
*420 _0401_
*421 _0402_
*422 _0403_
*423 _0404_
*424 _0405_
*425 _0406_
*426 _0407_
*427 _0408_
*428 _0409_
*429 _0410_
*430 _0411_
*431 _0412_
*432 _0413_
*433 _0414_
*434 _0415_
*435 _0416_
*436 _0417_
*437 _0418_
*438 _0419_
*439 _0420_
*440 _0421_
*441 _0422_
*442 _0423_
*443 _0424_
*444 _0425_
*445 _0426_
*446 _0427_
*447 _0428_
*448 _0429_
*449 _0430_
*450 _0431_
*451 _0432_
*452 _0433_
*453 _0434_
*454 _0435_
*455 _0436_
*456 _0437_
*457 _0438_
*458 _0439_
*459 _0440_
*460 _0441_
*461 _0442_
*462 _0443_
*463 _0444_
*464 _0445_
*465 _0446_
*466 _0447_
*467 _0448_
*468 _0449_
*469 _0450_
*470 _0451_
*471 _0452_
*472 _0453_
*473 _0454_
*474 _0455_
*475 _0456_
*476 _0457_
*477 _0458_
*478 _0459_
*479 _0460_
*480 _0461_
*481 _0462_
*482 _0463_
*483 _0464_
*484 _0465_
*485 _0466_
*486 _0467_
*487 _0468_
*488 _0469_
*489 _0470_
*490 _0471_
*491 _0472_
*492 _0473_
*493 _0474_
*494 _0475_
*495 _0476_
*496 _0477_
*497 _0478_
*498 _0479_
*499 _0480_
*500 _0481_
*501 _0482_
*502 _0483_
*503 _0484_
*504 _0485_
*505 _0486_
*506 _0487_
*507 _0488_
*508 _0489_
*509 _0490_
*510 _0491_
*511 _0492_
*512 _0493_
*513 _0494_
*514 _0495_
*515 _0496_
*516 _0497_
*517 _0498_
*518 _0499_
*519 _0500_
*520 _0501_
*521 _0502_
*522 _0503_
*523 _0504_
*524 _0505_
*525 _0506_
*526 _0507_
*527 _0508_
*528 _0509_
*529 _0510_
*530 _0511_
*531 _0512_
*532 _0513_
*533 _0514_
*534 _0515_
*535 _0516_
*536 _0517_
*537 _0518_
*538 _0519_
*539 _0520_
*540 _0521_
*541 _0522_
*542 _0523_
*543 _0524_
*544 _0525_
*545 _0526_
*546 _0527_
*547 _0528_
*548 _0529_
*549 _0530_
*550 _0531_
*551 _0532_
*552 _0533_
*553 _0534_
*554 _0535_
*555 _0536_
*556 _0537_
*557 _0538_
*558 _0539_
*559 _0540_
*560 _0541_
*561 _0542_
*562 _0543_
*563 _0544_
*564 _0545_
*565 _0546_
*566 _0547_
*567 _0548_
*568 _0549_
*569 _0550_
*570 _0551_
*571 _0552_
*572 _0553_
*573 _0554_
*574 _0555_
*575 _0556_
*576 _0557_
*577 _0558_
*578 _0559_
*579 _0560_
*580 _0561_
*581 _0562_
*582 _0563_
*583 _0564_
*584 _0565_
*585 _0566_
*586 _0567_
*587 _0568_
*588 _0569_
*589 _0570_
*590 _0571_
*591 _0572_
*592 _0573_
*593 _0574_
*594 _0575_
*595 _0576_
*596 _0577_
*597 _0578_
*598 _0579_
*599 _0580_
*600 _0581_
*601 _0582_
*602 _0583_
*603 _0584_
*604 _0585_
*605 _0586_
*606 _0587_
*607 _0588_
*608 _0589_
*609 _0590_
*610 _0591_
*611 _0592_
*612 _0593_
*613 _0594_
*614 _0595_
*615 _0596_
*616 _0597_
*617 _0598_
*618 _0599_
*619 _0600_
*620 _0601_
*621 _0602_
*622 _0603_
*623 _0604_
*624 _0605_
*625 _0606_
*626 _0607_
*627 _0608_
*628 _0609_
*629 _0610_
*630 _0611_
*631 _0612_
*632 _0613_
*633 _0614_
*634 _0615_
*635 _0616_
*636 _0617_
*637 _0618_
*638 _0619_
*639 _0620_
*640 _0621_
*641 _0622_
*642 _0623_
*643 _0624_
*644 _0625_
*645 _0626_
*646 _0627_
*647 _0628_
*648 _0629_
*649 _0630_
*650 _0631_
*651 _0632_
*652 _0633_
*653 _0634_
*654 _0635_
*655 _0636_
*656 _0637_
*657 _0638_
*658 _0639_
*659 _0640_
*660 _0641_
*661 _0642_
*662 _0643_
*663 _0644_
*664 _0645_
*665 _0646_
*666 _0647_
*667 _0648_
*668 _0649_
*669 _0650_
*670 _0651_
*671 _0652_
*672 _0653_
*673 _0654_
*674 _0655_
*675 _0656_
*676 _0657_
*677 _0658_
*678 _0659_
*679 _0660_
*680 _0661_
*681 _0662_
*682 _0663_
*683 _0664_
*684 _0665_
*685 _0666_
*686 _0667_
*687 _0668_
*688 _0669_
*689 _0670_
*690 _0671_
*691 _0672_
*692 _0673_
*693 _0674_
*694 _0675_
*695 _0676_
*696 _0677_
*697 _0678_
*698 _0679_
*699 _0680_
*700 _0681_
*701 _0682_
*702 _0683_
*703 _0684_
*704 _0685_
*705 _0686_
*706 _0687_
*707 _0688_
*708 _0689_
*709 _0690_
*710 _0691_
*711 _0692_
*712 clknet_0_io_in[0]
*713 clknet_4_0_0_io_in[0]
*714 clknet_4_10_0_io_in[0]
*715 clknet_4_11_0_io_in[0]
*716 clknet_4_12_0_io_in[0]
*717 clknet_4_13_0_io_in[0]
*718 clknet_4_14_0_io_in[0]
*719 clknet_4_15_0_io_in[0]
*720 clknet_4_1_0_io_in[0]
*721 clknet_4_2_0_io_in[0]
*722 clknet_4_3_0_io_in[0]
*723 clknet_4_4_0_io_in[0]
*724 clknet_4_5_0_io_in[0]
*725 clknet_4_6_0_io_in[0]
*726 clknet_4_7_0_io_in[0]
*727 clknet_4_8_0_io_in[0]
*728 clknet_4_9_0_io_in[0]
*729 net1
*730 net2
*731 net3
*732 net4
*733 top\.a_out
*734 top\.b_out
*735 top\.blank
*736 top\.blue
*737 top\.col_cnt\[0\]
*738 top\.col_cnt\[1\]
*739 top\.col_cnt\[2\]
*740 top\.col_cnt\[3\]
*741 top\.col_cnt\[4\]
*742 top\.col_cnt\[5\]
*743 top\.frame_buffer\[0\]\[0\]
*744 top\.frame_buffer\[0\]\[1\]
*745 top\.frame_buffer\[0\]\[2\]
*746 top\.frame_buffer\[0\]\[3\]
*747 top\.frame_buffer\[0\]\[4\]
*748 top\.frame_buffer\[0\]\[5\]
*749 top\.frame_buffer\[0\]\[6\]
*750 top\.frame_buffer\[0\]\[7\]
*751 top\.frame_buffer\[10\]\[0\]
*752 top\.frame_buffer\[10\]\[1\]
*753 top\.frame_buffer\[10\]\[2\]
*754 top\.frame_buffer\[10\]\[3\]
*755 top\.frame_buffer\[10\]\[4\]
*756 top\.frame_buffer\[10\]\[5\]
*757 top\.frame_buffer\[10\]\[6\]
*758 top\.frame_buffer\[10\]\[7\]
*759 top\.frame_buffer\[11\]\[0\]
*760 top\.frame_buffer\[11\]\[1\]
*761 top\.frame_buffer\[11\]\[2\]
*762 top\.frame_buffer\[11\]\[3\]
*763 top\.frame_buffer\[11\]\[4\]
*764 top\.frame_buffer\[11\]\[5\]
*765 top\.frame_buffer\[11\]\[6\]
*766 top\.frame_buffer\[11\]\[7\]
*767 top\.frame_buffer\[12\]\[0\]
*768 top\.frame_buffer\[12\]\[1\]
*769 top\.frame_buffer\[12\]\[2\]
*770 top\.frame_buffer\[12\]\[3\]
*771 top\.frame_buffer\[12\]\[4\]
*772 top\.frame_buffer\[12\]\[5\]
*773 top\.frame_buffer\[12\]\[6\]
*774 top\.frame_buffer\[12\]\[7\]
*775 top\.frame_buffer\[13\]\[0\]
*776 top\.frame_buffer\[13\]\[1\]
*777 top\.frame_buffer\[13\]\[2\]
*778 top\.frame_buffer\[13\]\[3\]
*779 top\.frame_buffer\[13\]\[4\]
*780 top\.frame_buffer\[13\]\[5\]
*781 top\.frame_buffer\[13\]\[6\]
*782 top\.frame_buffer\[13\]\[7\]
*783 top\.frame_buffer\[14\]\[0\]
*784 top\.frame_buffer\[14\]\[1\]
*785 top\.frame_buffer\[14\]\[2\]
*786 top\.frame_buffer\[14\]\[3\]
*787 top\.frame_buffer\[14\]\[4\]
*788 top\.frame_buffer\[14\]\[5\]
*789 top\.frame_buffer\[14\]\[6\]
*790 top\.frame_buffer\[14\]\[7\]
*791 top\.frame_buffer\[15\]\[0\]
*792 top\.frame_buffer\[15\]\[1\]
*793 top\.frame_buffer\[15\]\[2\]
*794 top\.frame_buffer\[15\]\[3\]
*795 top\.frame_buffer\[15\]\[4\]
*796 top\.frame_buffer\[15\]\[5\]
*797 top\.frame_buffer\[15\]\[6\]
*798 top\.frame_buffer\[15\]\[7\]
*799 top\.frame_buffer\[1\]\[0\]
*800 top\.frame_buffer\[1\]\[1\]
*801 top\.frame_buffer\[1\]\[2\]
*802 top\.frame_buffer\[1\]\[3\]
*803 top\.frame_buffer\[1\]\[4\]
*804 top\.frame_buffer\[1\]\[5\]
*805 top\.frame_buffer\[1\]\[6\]
*806 top\.frame_buffer\[1\]\[7\]
*807 top\.frame_buffer\[2\]\[0\]
*808 top\.frame_buffer\[2\]\[1\]
*809 top\.frame_buffer\[2\]\[2\]
*810 top\.frame_buffer\[2\]\[3\]
*811 top\.frame_buffer\[2\]\[4\]
*812 top\.frame_buffer\[2\]\[5\]
*813 top\.frame_buffer\[2\]\[6\]
*814 top\.frame_buffer\[2\]\[7\]
*815 top\.frame_buffer\[3\]\[0\]
*816 top\.frame_buffer\[3\]\[1\]
*817 top\.frame_buffer\[3\]\[2\]
*818 top\.frame_buffer\[3\]\[3\]
*819 top\.frame_buffer\[3\]\[4\]
*820 top\.frame_buffer\[3\]\[5\]
*821 top\.frame_buffer\[3\]\[6\]
*822 top\.frame_buffer\[3\]\[7\]
*823 top\.frame_buffer\[4\]\[0\]
*824 top\.frame_buffer\[4\]\[1\]
*825 top\.frame_buffer\[4\]\[2\]
*826 top\.frame_buffer\[4\]\[3\]
*827 top\.frame_buffer\[4\]\[4\]
*828 top\.frame_buffer\[4\]\[5\]
*829 top\.frame_buffer\[4\]\[6\]
*830 top\.frame_buffer\[4\]\[7\]
*831 top\.frame_buffer\[5\]\[0\]
*832 top\.frame_buffer\[5\]\[1\]
*833 top\.frame_buffer\[5\]\[2\]
*834 top\.frame_buffer\[5\]\[3\]
*835 top\.frame_buffer\[5\]\[4\]
*836 top\.frame_buffer\[5\]\[5\]
*837 top\.frame_buffer\[5\]\[6\]
*838 top\.frame_buffer\[5\]\[7\]
*839 top\.frame_buffer\[6\]\[0\]
*840 top\.frame_buffer\[6\]\[1\]
*841 top\.frame_buffer\[6\]\[2\]
*842 top\.frame_buffer\[6\]\[3\]
*843 top\.frame_buffer\[6\]\[4\]
*844 top\.frame_buffer\[6\]\[5\]
*845 top\.frame_buffer\[6\]\[6\]
*846 top\.frame_buffer\[6\]\[7\]
*847 top\.frame_buffer\[7\]\[0\]
*848 top\.frame_buffer\[7\]\[1\]
*849 top\.frame_buffer\[7\]\[2\]
*850 top\.frame_buffer\[7\]\[3\]
*851 top\.frame_buffer\[7\]\[4\]
*852 top\.frame_buffer\[7\]\[5\]
*853 top\.frame_buffer\[7\]\[6\]
*854 top\.frame_buffer\[7\]\[7\]
*855 top\.frame_buffer\[8\]\[0\]
*856 top\.frame_buffer\[8\]\[1\]
*857 top\.frame_buffer\[8\]\[2\]
*858 top\.frame_buffer\[8\]\[3\]
*859 top\.frame_buffer\[8\]\[4\]
*860 top\.frame_buffer\[8\]\[5\]
*861 top\.frame_buffer\[8\]\[6\]
*862 top\.frame_buffer\[8\]\[7\]
*863 top\.frame_buffer\[9\]\[0\]
*864 top\.frame_buffer\[9\]\[1\]
*865 top\.frame_buffer\[9\]\[2\]
*866 top\.frame_buffer\[9\]\[3\]
*867 top\.frame_buffer\[9\]\[4\]
*868 top\.frame_buffer\[9\]\[5\]
*869 top\.frame_buffer\[9\]\[6\]
*870 top\.frame_buffer\[9\]\[7\]
*871 top\.green
*872 top\.latch
*873 top\.latch_out
*874 top\.led_data_state\[0\]
*875 top\.led_data_state\[1\]
*876 top\.led_data_state\[2\]
*877 top\.led_data_state\[3\]
*878 top\.red
*879 top\.rgb\[0\]
*880 top\.rgb\[1\]
*881 top\.rgb\[2\]
*882 top\.sclk
*883 top\.sclk_en
*884 top\.uart_data_state\[0\]
*885 top\.uart_data_state\[1\]
*886 top\.uart_data_state\[2\]
*887 top\.uart_rx\.r_Bit_Index\[0\]
*888 top\.uart_rx\.r_Bit_Index\[1\]
*889 top\.uart_rx\.r_Bit_Index\[2\]
*890 top\.uart_rx\.r_Clock_Count\[0\]
*891 top\.uart_rx\.r_Clock_Count\[1\]
*892 top\.uart_rx\.r_Clock_Count\[2\]
*893 top\.uart_rx\.r_Clock_Count\[3\]
*894 top\.uart_rx\.r_Clock_Count\[4\]
*895 top\.uart_rx\.r_Clock_Count\[5\]
*896 top\.uart_rx\.r_Clock_Count\[6\]
*897 top\.uart_rx\.r_Clock_Count\[7\]
*898 top\.uart_rx\.r_Rx_Byte\[0\]
*899 top\.uart_rx\.r_Rx_Byte\[1\]
*900 top\.uart_rx\.r_Rx_Byte\[2\]
*901 top\.uart_rx\.r_Rx_Byte\[3\]
*902 top\.uart_rx\.r_Rx_Byte\[4\]
*903 top\.uart_rx\.r_Rx_Byte\[5\]
*904 top\.uart_rx\.r_Rx_Byte\[6\]
*905 top\.uart_rx\.r_Rx_Byte\[7\]
*906 top\.uart_rx\.r_Rx_DV
*907 top\.uart_rx\.r_Rx_Data
*908 top\.uart_rx\.r_Rx_Data_R
*909 top\.uart_rx\.r_SM_Main\[0\]
*910 top\.uart_rx\.r_SM_Main\[1\]
*911 top\.uart_rx\.r_SM_Main\[2\]
*912 ANTENNA_1
*913 ANTENNA_10
*914 ANTENNA_11
*915 ANTENNA_12
*916 ANTENNA_13
*917 ANTENNA_14
*918 ANTENNA_15
*919 ANTENNA_16
*920 ANTENNA_17
*921 ANTENNA_18
*922 ANTENNA_19
*923 ANTENNA_2
*924 ANTENNA_20
*925 ANTENNA_21
*926 ANTENNA_22
*927 ANTENNA_23
*928 ANTENNA_24
*929 ANTENNA_25
*930 ANTENNA_26
*931 ANTENNA_27
*932 ANTENNA_28
*933 ANTENNA_29
*934 ANTENNA_3
*935 ANTENNA_30
*936 ANTENNA_31
*937 ANTENNA_32
*938 ANTENNA_33
*939 ANTENNA_34
*940 ANTENNA_35
*941 ANTENNA_36
*942 ANTENNA_37
*943 ANTENNA_38
*944 ANTENNA_39
*945 ANTENNA_4
*946 ANTENNA_40
*947 ANTENNA_41
*948 ANTENNA_42
*949 ANTENNA_43
*950 ANTENNA_5
*951 ANTENNA_6
*952 ANTENNA_7
*953 ANTENNA_8
*954 ANTENNA_9
*955 FILLER_0_11
*956 FILLER_0_110
*957 FILLER_0_113
*958 FILLER_0_131
*959 FILLER_0_138
*960 FILLER_0_141
*961 FILLER_0_148
*962 FILLER_0_155
*963 FILLER_0_164
*964 FILLER_0_169
*965 FILLER_0_176
*966 FILLER_0_189
*967 FILLER_0_195
*968 FILLER_0_197
*969 FILLER_0_208
*970 FILLER_0_22
*971 FILLER_0_220
*972 FILLER_0_225
*973 FILLER_0_232
*974 FILLER_0_244
*975 FILLER_0_253
*976 FILLER_0_265
*977 FILLER_0_277
*978 FILLER_0_281
*979 FILLER_0_29
*980 FILLER_0_293
*981 FILLER_0_3
*982 FILLER_0_36
*983 FILLER_0_45
*984 FILLER_0_54
*985 FILLER_0_57
*986 FILLER_0_62
*987 FILLER_0_82
*988 FILLER_0_85
*989 FILLER_0_90
*990 FILLER_10_101
*991 FILLER_10_121
*992 FILLER_10_128
*993 FILLER_10_138
*994 FILLER_10_141
*995 FILLER_10_155
*996 FILLER_10_166
*997 FILLER_10_172
*998 FILLER_10_179
*999 FILLER_10_189
*1000 FILLER_10_195
*1001 FILLER_10_197
*1002 FILLER_10_20
*1003 FILLER_10_205
*1004 FILLER_10_217
*1005 FILLER_10_229
*1006 FILLER_10_236
*1007 FILLER_10_248
*1008 FILLER_10_253
*1009 FILLER_10_265
*1010 FILLER_10_277
*1011 FILLER_10_289
*1012 FILLER_10_29
*1013 FILLER_10_297
*1014 FILLER_10_3
*1015 FILLER_10_40
*1016 FILLER_10_49
*1017 FILLER_10_53
*1018 FILLER_10_71
*1019 FILLER_10_81
*1020 FILLER_10_85
*1021 FILLER_10_89
*1022 FILLER_11_110
*1023 FILLER_11_113
*1024 FILLER_11_122
*1025 FILLER_11_136
*1026 FILLER_11_153
*1027 FILLER_11_157
*1028 FILLER_11_164
*1029 FILLER_11_169
*1030 FILLER_11_178
*1031 FILLER_11_189
*1032 FILLER_11_201
*1033 FILLER_11_21
*1034 FILLER_11_213
*1035 FILLER_11_221
*1036 FILLER_11_225
*1037 FILLER_11_237
*1038 FILLER_11_251
*1039 FILLER_11_263
*1040 FILLER_11_271
*1041 FILLER_11_278
*1042 FILLER_11_281
*1043 FILLER_11_295
*1044 FILLER_11_3
*1045 FILLER_11_32
*1046 FILLER_11_47
*1047 FILLER_11_55
*1048 FILLER_11_57
*1049 FILLER_11_67
*1050 FILLER_11_73
*1051 FILLER_11_85
*1052 FILLER_11_93
*1053 FILLER_12_100
*1054 FILLER_12_11
*1055 FILLER_12_120
*1056 FILLER_12_136
*1057 FILLER_12_141
*1058 FILLER_12_149
*1059 FILLER_12_155
*1060 FILLER_12_168
*1061 FILLER_12_180
*1062 FILLER_12_189
*1063 FILLER_12_195
*1064 FILLER_12_197
*1065 FILLER_12_209
*1066 FILLER_12_221
*1067 FILLER_12_233
*1068 FILLER_12_245
*1069 FILLER_12_249
*1070 FILLER_12_253
*1071 FILLER_12_26
*1072 FILLER_12_265
*1073 FILLER_12_273
*1074 FILLER_12_279
*1075 FILLER_12_29
*1076 FILLER_12_291
*1077 FILLER_12_3
*1078 FILLER_12_34
*1079 FILLER_12_54
*1080 FILLER_12_58
*1081 FILLER_12_67
*1082 FILLER_12_77
*1083 FILLER_12_83
*1084 FILLER_12_85
*1085 FILLER_12_93
*1086 FILLER_13_102
*1087 FILLER_13_110
*1088 FILLER_13_113
*1089 FILLER_13_125
*1090 FILLER_13_129
*1091 FILLER_13_139
*1092 FILLER_13_152
*1093 FILLER_13_162
*1094 FILLER_13_169
*1095 FILLER_13_177
*1096 FILLER_13_184
*1097 FILLER_13_196
*1098 FILLER_13_208
*1099 FILLER_13_21
*1100 FILLER_13_220
*1101 FILLER_13_225
*1102 FILLER_13_237
*1103 FILLER_13_249
*1104 FILLER_13_261
*1105 FILLER_13_273
*1106 FILLER_13_279
*1107 FILLER_13_281
*1108 FILLER_13_285
*1109 FILLER_13_294
*1110 FILLER_13_298
*1111 FILLER_13_3
*1112 FILLER_13_30
*1113 FILLER_13_50
*1114 FILLER_13_57
*1115 FILLER_13_65
*1116 FILLER_13_77
*1117 FILLER_13_85
*1118 FILLER_14_100
*1119 FILLER_14_120
*1120 FILLER_14_128
*1121 FILLER_14_138
*1122 FILLER_14_141
*1123 FILLER_14_147
*1124 FILLER_14_153
*1125 FILLER_14_163
*1126 FILLER_14_175
*1127 FILLER_14_185
*1128 FILLER_14_192
*1129 FILLER_14_197
*1130 FILLER_14_209
*1131 FILLER_14_221
*1132 FILLER_14_233
*1133 FILLER_14_245
*1134 FILLER_14_251
*1135 FILLER_14_253
*1136 FILLER_14_26
*1137 FILLER_14_276
*1138 FILLER_14_285
*1139 FILLER_14_29
*1140 FILLER_14_295
*1141 FILLER_14_3
*1142 FILLER_14_39
*1143 FILLER_14_59
*1144 FILLER_14_79
*1145 FILLER_14_83
*1146 FILLER_14_85
*1147 FILLER_14_9
*1148 FILLER_14_90
*1149 FILLER_14_94
*1150 FILLER_15_100
*1151 FILLER_15_110
*1152 FILLER_15_113
*1153 FILLER_15_121
*1154 FILLER_15_133
*1155 FILLER_15_139
*1156 FILLER_15_14
*1157 FILLER_15_149
*1158 FILLER_15_166
*1159 FILLER_15_169
*1160 FILLER_15_177
*1161 FILLER_15_186
*1162 FILLER_15_198
*1163 FILLER_15_207
*1164 FILLER_15_211
*1165 FILLER_15_219
*1166 FILLER_15_223
*1167 FILLER_15_225
*1168 FILLER_15_233
*1169 FILLER_15_242
*1170 FILLER_15_254
*1171 FILLER_15_266
*1172 FILLER_15_272
*1173 FILLER_15_278
*1174 FILLER_15_281
*1175 FILLER_15_287
*1176 FILLER_15_297
*1177 FILLER_15_3
*1178 FILLER_15_34
*1179 FILLER_15_54
*1180 FILLER_15_57
*1181 FILLER_15_63
*1182 FILLER_15_74
*1183 FILLER_15_94
*1184 FILLER_16_103
*1185 FILLER_16_122
*1186 FILLER_16_137
*1187 FILLER_16_141
*1188 FILLER_16_155
*1189 FILLER_16_159
*1190 FILLER_16_173
*1191 FILLER_16_185
*1192 FILLER_16_193
*1193 FILLER_16_197
*1194 FILLER_16_208
*1195 FILLER_16_218
*1196 FILLER_16_233
*1197 FILLER_16_250
*1198 FILLER_16_253
*1199 FILLER_16_26
*1200 FILLER_16_265
*1201 FILLER_16_276
*1202 FILLER_16_285
*1203 FILLER_16_29
*1204 FILLER_16_297
*1205 FILLER_16_3
*1206 FILLER_16_40
*1207 FILLER_16_48
*1208 FILLER_16_65
*1209 FILLER_16_69
*1210 FILLER_16_74
*1211 FILLER_16_8
*1212 FILLER_16_81
*1213 FILLER_16_85
*1214 FILLER_16_95
*1215 FILLER_17_101
*1216 FILLER_17_109
*1217 FILLER_17_113
*1218 FILLER_17_124
*1219 FILLER_17_14
*1220 FILLER_17_140
*1221 FILLER_17_148
*1222 FILLER_17_155
*1223 FILLER_17_167
*1224 FILLER_17_169
*1225 FILLER_17_178
*1226 FILLER_17_186
*1227 FILLER_17_194
*1228 FILLER_17_206
*1229 FILLER_17_218
*1230 FILLER_17_225
*1231 FILLER_17_234
*1232 FILLER_17_242
*1233 FILLER_17_249
*1234 FILLER_17_255
*1235 FILLER_17_26
*1236 FILLER_17_263
*1237 FILLER_17_270
*1238 FILLER_17_278
*1239 FILLER_17_281
*1240 FILLER_17_285
*1241 FILLER_17_295
*1242 FILLER_17_3
*1243 FILLER_17_30
*1244 FILLER_17_48
*1245 FILLER_17_57
*1246 FILLER_17_62
*1247 FILLER_17_81
*1248 FILLER_18_103
*1249 FILLER_18_114
*1250 FILLER_18_118
*1251 FILLER_18_124
*1252 FILLER_18_132
*1253 FILLER_18_141
*1254 FILLER_18_150
*1255 FILLER_18_159
*1256 FILLER_18_163
*1257 FILLER_18_173
*1258 FILLER_18_180
*1259 FILLER_18_184
*1260 FILLER_18_192
*1261 FILLER_18_197
*1262 FILLER_18_207
*1263 FILLER_18_219
*1264 FILLER_18_231
*1265 FILLER_18_243
*1266 FILLER_18_251
*1267 FILLER_18_253
*1268 FILLER_18_26
*1269 FILLER_18_269
*1270 FILLER_18_281
*1271 FILLER_18_287
*1272 FILLER_18_29
*1273 FILLER_18_291
*1274 FILLER_18_3
*1275 FILLER_18_42
*1276 FILLER_18_62
*1277 FILLER_18_82
*1278 FILLER_18_85
*1279 FILLER_18_9
*1280 FILLER_19_108
*1281 FILLER_19_113
*1282 FILLER_19_122
*1283 FILLER_19_132
*1284 FILLER_19_148
*1285 FILLER_19_160
*1286 FILLER_19_169
*1287 FILLER_19_180
*1288 FILLER_19_189
*1289 FILLER_19_201
*1290 FILLER_19_213
*1291 FILLER_19_221
*1292 FILLER_19_225
*1293 FILLER_19_24
*1294 FILLER_19_248
*1295 FILLER_19_260
*1296 FILLER_19_272
*1297 FILLER_19_28
*1298 FILLER_19_281
*1299 FILLER_19_297
*1300 FILLER_19_3
*1301 FILLER_19_46
*1302 FILLER_19_53
*1303 FILLER_19_57
*1304 FILLER_19_7
*1305 FILLER_19_70
*1306 FILLER_19_76
*1307 FILLER_19_93
*1308 FILLER_1_110
*1309 FILLER_1_113
*1310 FILLER_1_131
*1311 FILLER_1_151
*1312 FILLER_1_16
*1313 FILLER_1_162
*1314 FILLER_1_169
*1315 FILLER_1_183
*1316 FILLER_1_198
*1317 FILLER_1_215
*1318 FILLER_1_223
*1319 FILLER_1_225
*1320 FILLER_1_254
*1321 FILLER_1_266
*1322 FILLER_1_27
*1323 FILLER_1_278
*1324 FILLER_1_281
*1325 FILLER_1_293
*1326 FILLER_1_3
*1327 FILLER_1_38
*1328 FILLER_1_42
*1329 FILLER_1_51
*1330 FILLER_1_55
*1331 FILLER_1_57
*1332 FILLER_1_61
*1333 FILLER_1_7
*1334 FILLER_1_70
*1335 FILLER_1_90
*1336 FILLER_20_107
*1337 FILLER_20_116
*1338 FILLER_20_131
*1339 FILLER_20_139
*1340 FILLER_20_141
*1341 FILLER_20_151
*1342 FILLER_20_155
*1343 FILLER_20_162
*1344 FILLER_20_170
*1345 FILLER_20_18
*1346 FILLER_20_181
*1347 FILLER_20_190
*1348 FILLER_20_197
*1349 FILLER_20_205
*1350 FILLER_20_216
*1351 FILLER_20_220
*1352 FILLER_20_226
*1353 FILLER_20_239
*1354 FILLER_20_251
*1355 FILLER_20_253
*1356 FILLER_20_26
*1357 FILLER_20_265
*1358 FILLER_20_271
*1359 FILLER_20_274
*1360 FILLER_20_29
*1361 FILLER_20_297
*1362 FILLER_20_3
*1363 FILLER_20_42
*1364 FILLER_20_62
*1365 FILLER_20_82
*1366 FILLER_20_85
*1367 FILLER_20_96
*1368 FILLER_21_110
*1369 FILLER_21_113
*1370 FILLER_21_12
*1371 FILLER_21_123
*1372 FILLER_21_131
*1373 FILLER_21_146
*1374 FILLER_21_158
*1375 FILLER_21_164
*1376 FILLER_21_169
*1377 FILLER_21_177
*1378 FILLER_21_188
*1379 FILLER_21_204
*1380 FILLER_21_216
*1381 FILLER_21_225
*1382 FILLER_21_237
*1383 FILLER_21_249
*1384 FILLER_21_264
*1385 FILLER_21_27
*1386 FILLER_21_273
*1387 FILLER_21_279
*1388 FILLER_21_281
*1389 FILLER_21_285
*1390 FILLER_21_291
*1391 FILLER_21_3
*1392 FILLER_21_47
*1393 FILLER_21_54
*1394 FILLER_21_57
*1395 FILLER_21_76
*1396 FILLER_21_87
*1397 FILLER_22_111
*1398 FILLER_22_122
*1399 FILLER_22_131
*1400 FILLER_22_139
*1401 FILLER_22_141
*1402 FILLER_22_166
*1403 FILLER_22_178
*1404 FILLER_22_188
*1405 FILLER_22_197
*1406 FILLER_22_209
*1407 FILLER_22_21
*1408 FILLER_22_221
*1409 FILLER_22_230
*1410 FILLER_22_242
*1411 FILLER_22_25
*1412 FILLER_22_250
*1413 FILLER_22_253
*1414 FILLER_22_257
*1415 FILLER_22_261
*1416 FILLER_22_265
*1417 FILLER_22_275
*1418 FILLER_22_286
*1419 FILLER_22_29
*1420 FILLER_22_297
*1421 FILLER_22_3
*1422 FILLER_22_51
*1423 FILLER_22_58
*1424 FILLER_22_82
*1425 FILLER_22_85
*1426 FILLER_22_93
*1427 FILLER_23_10
*1428 FILLER_23_107
*1429 FILLER_23_111
*1430 FILLER_23_113
*1431 FILLER_23_125
*1432 FILLER_23_133
*1433 FILLER_23_150
*1434 FILLER_23_156
*1435 FILLER_23_164
*1436 FILLER_23_169
*1437 FILLER_23_178
*1438 FILLER_23_185
*1439 FILLER_23_197
*1440 FILLER_23_209
*1441 FILLER_23_215
*1442 FILLER_23_221
*1443 FILLER_23_225
*1444 FILLER_23_229
*1445 FILLER_23_245
*1446 FILLER_23_257
*1447 FILLER_23_265
*1448 FILLER_23_276
*1449 FILLER_23_28
*1450 FILLER_23_281
*1451 FILLER_23_290
*1452 FILLER_23_297
*1453 FILLER_23_48
*1454 FILLER_23_57
*1455 FILLER_23_6
*1456 FILLER_23_75
*1457 FILLER_23_82
*1458 FILLER_23_90
*1459 FILLER_24_111
*1460 FILLER_24_123
*1461 FILLER_24_132
*1462 FILLER_24_141
*1463 FILLER_24_152
*1464 FILLER_24_164
*1465 FILLER_24_174
*1466 FILLER_24_184
*1467 FILLER_24_197
*1468 FILLER_24_207
*1469 FILLER_24_21
*1470 FILLER_24_211
*1471 FILLER_24_234
*1472 FILLER_24_246
*1473 FILLER_24_25
*1474 FILLER_24_253
*1475 FILLER_24_262
*1476 FILLER_24_278
*1477 FILLER_24_286
*1478 FILLER_24_29
*1479 FILLER_24_297
*1480 FILLER_24_3
*1481 FILLER_24_38
*1482 FILLER_24_45
*1483 FILLER_24_65
*1484 FILLER_24_79
*1485 FILLER_24_83
*1486 FILLER_24_85
*1487 FILLER_24_93
*1488 FILLER_25_105
*1489 FILLER_25_111
*1490 FILLER_25_113
*1491 FILLER_25_130
*1492 FILLER_25_143
*1493 FILLER_25_155
*1494 FILLER_25_166
*1495 FILLER_25_169
*1496 FILLER_25_175
*1497 FILLER_25_185
*1498 FILLER_25_197
*1499 FILLER_25_209
*1500 FILLER_25_21
*1501 FILLER_25_218
*1502 FILLER_25_225
*1503 FILLER_25_237
*1504 FILLER_25_249
*1505 FILLER_25_25
*1506 FILLER_25_261
*1507 FILLER_25_270
*1508 FILLER_25_278
*1509 FILLER_25_281
*1510 FILLER_25_291
*1511 FILLER_25_3
*1512 FILLER_25_44
*1513 FILLER_25_57
*1514 FILLER_25_68
*1515 FILLER_25_79
*1516 FILLER_25_87
*1517 FILLER_26_106
*1518 FILLER_26_118
*1519 FILLER_26_126
*1520 FILLER_26_134
*1521 FILLER_26_141
*1522 FILLER_26_158
*1523 FILLER_26_162
*1524 FILLER_26_185
*1525 FILLER_26_194
*1526 FILLER_26_197
*1527 FILLER_26_209
*1528 FILLER_26_21
*1529 FILLER_26_215
*1530 FILLER_26_225
*1531 FILLER_26_250
*1532 FILLER_26_253
*1533 FILLER_26_261
*1534 FILLER_26_269
*1535 FILLER_26_27
*1536 FILLER_26_282
*1537 FILLER_26_286
*1538 FILLER_26_29
*1539 FILLER_26_295
*1540 FILLER_26_3
*1541 FILLER_26_34
*1542 FILLER_26_58
*1543 FILLER_26_82
*1544 FILLER_26_85
*1545 FILLER_27_10
*1546 FILLER_27_106
*1547 FILLER_27_113
*1548 FILLER_27_118
*1549 FILLER_27_126
*1550 FILLER_27_132
*1551 FILLER_27_14
*1552 FILLER_27_144
*1553 FILLER_27_156
*1554 FILLER_27_166
*1555 FILLER_27_169
*1556 FILLER_27_181
*1557 FILLER_27_191
*1558 FILLER_27_202
*1559 FILLER_27_206
*1560 FILLER_27_213
*1561 FILLER_27_221
*1562 FILLER_27_225
*1563 FILLER_27_237
*1564 FILLER_27_249
*1565 FILLER_27_258
*1566 FILLER_27_270
*1567 FILLER_27_278
*1568 FILLER_27_281
*1569 FILLER_27_297
*1570 FILLER_27_3
*1571 FILLER_27_33
*1572 FILLER_27_37
*1573 FILLER_27_54
*1574 FILLER_27_57
*1575 FILLER_27_69
*1576 FILLER_27_86
*1577 FILLER_28_101
*1578 FILLER_28_118
*1579 FILLER_28_126
*1580 FILLER_28_135
*1581 FILLER_28_139
*1582 FILLER_28_141
*1583 FILLER_28_149
*1584 FILLER_28_153
*1585 FILLER_28_161
*1586 FILLER_28_174
*1587 FILLER_28_184
*1588 FILLER_28_197
*1589 FILLER_28_208
*1590 FILLER_28_21
*1591 FILLER_28_218
*1592 FILLER_28_230
*1593 FILLER_28_242
*1594 FILLER_28_25
*1595 FILLER_28_250
*1596 FILLER_28_253
*1597 FILLER_28_260
*1598 FILLER_28_269
*1599 FILLER_28_276
*1600 FILLER_28_286
*1601 FILLER_28_29
*1602 FILLER_28_297
*1603 FILLER_28_3
*1604 FILLER_28_37
*1605 FILLER_28_54
*1606 FILLER_28_74
*1607 FILLER_28_82
*1608 FILLER_28_85
*1609 FILLER_28_97
*1610 FILLER_29_110
*1611 FILLER_29_113
*1612 FILLER_29_119
*1613 FILLER_29_125
*1614 FILLER_29_138
*1615 FILLER_29_144
*1616 FILLER_29_152
*1617 FILLER_29_162
*1618 FILLER_29_169
*1619 FILLER_29_178
*1620 FILLER_29_187
*1621 FILLER_29_196
*1622 FILLER_29_208
*1623 FILLER_29_21
*1624 FILLER_29_220
*1625 FILLER_29_225
*1626 FILLER_29_237
*1627 FILLER_29_249
*1628 FILLER_29_261
*1629 FILLER_29_269
*1630 FILLER_29_278
*1631 FILLER_29_281
*1632 FILLER_29_292
*1633 FILLER_29_298
*1634 FILLER_29_3
*1635 FILLER_29_33
*1636 FILLER_29_37
*1637 FILLER_29_54
*1638 FILLER_29_57
*1639 FILLER_29_69
*1640 FILLER_29_73
*1641 FILLER_29_90
*1642 FILLER_2_122
*1643 FILLER_2_131
*1644 FILLER_2_138
*1645 FILLER_2_141
*1646 FILLER_2_147
*1647 FILLER_2_154
*1648 FILLER_2_174
*1649 FILLER_2_187
*1650 FILLER_2_19
*1651 FILLER_2_194
*1652 FILLER_2_197
*1653 FILLER_2_207
*1654 FILLER_2_219
*1655 FILLER_2_225
*1656 FILLER_2_232
*1657 FILLER_2_244
*1658 FILLER_2_253
*1659 FILLER_2_26
*1660 FILLER_2_265
*1661 FILLER_2_277
*1662 FILLER_2_289
*1663 FILLER_2_29
*1664 FILLER_2_297
*1665 FILLER_2_3
*1666 FILLER_2_49
*1667 FILLER_2_53
*1668 FILLER_2_60
*1669 FILLER_2_8
*1670 FILLER_2_82
*1671 FILLER_2_85
*1672 FILLER_2_98
*1673 FILLER_30_121
*1674 FILLER_30_129
*1675 FILLER_30_138
*1676 FILLER_30_141
*1677 FILLER_30_149
*1678 FILLER_30_160
*1679 FILLER_30_166
*1680 FILLER_30_174
*1681 FILLER_30_182
*1682 FILLER_30_193
*1683 FILLER_30_197
*1684 FILLER_30_203
*1685 FILLER_30_21
*1686 FILLER_30_211
*1687 FILLER_30_220
*1688 FILLER_30_232
*1689 FILLER_30_244
*1690 FILLER_30_253
*1691 FILLER_30_262