*SPEF "ieee 1481-1999"
*DESIGN "tomkeddie_top_tto"
*DATE "11:11:11 Fri 11 11, 1111"
*VENDOR "OpenRCX"
*PROGRAM "Parallel Extraction"
*VERSION "1.0"
*DESIGN_FLOW "NAME_SCOPE LOCAL" "PIN_CAP NONE"
*DIVIDER /
*DELIMITER :
*BUS_DELIMITER []
*T_UNIT 1 NS
*C_UNIT 1 PF
*R_UNIT 1 OHM
*L_UNIT 1 HENRY

*NAME_MAP
*1 io_in[0]
*2 io_in[1]
*3 io_in[2]
*4 io_in[3]
*5 io_in[4]
*6 io_in[5]
*7 io_in[6]
*8 io_in[7]
*9 io_out[0]
*10 io_out[1]
*11 io_out[2]
*12 io_out[3]
*13 io_out[4]
*14 io_out[5]
*15 net4
*16 net5
*19 _000_
*20 _001_
*21 _002_
*22 _003_
*23 _004_
*24 _005_
*25 _006_
*26 _007_
*27 _008_
*28 _009_
*29 _010_
*30 _011_
*31 _012_
*32 _013_
*33 _014_
*34 _015_
*35 _016_
*36 _017_
*37 _018_
*38 _019_
*39 _020_
*40 _021_
*41 _022_
*42 _023_
*43 _024_
*44 _025_
*45 _026_
*46 _027_
*47 _028_
*48 _029_
*49 _030_
*50 _031_
*51 _032_
*52 _033_
*53 _034_
*54 _035_
*55 _036_
*56 _037_
*57 _038_
*58 _039_
*59 _040_
*60 _041_
*61 _042_
*62 _043_
*63 _044_
*64 _045_
*65 _046_
*66 _047_
*67 _048_
*68 _049_
*69 _050_
*70 _051_
*71 _052_
*72 _053_
*73 _054_
*74 _055_
*75 _056_
*76 _057_
*77 _058_
*78 _059_
*79 _060_
*80 _061_
*81 _062_
*82 _063_
*83 _064_
*84 _065_
*85 _066_
*86 _067_
*87 _068_
*88 _069_
*89 _070_
*90 _071_
*91 _072_
*92 _073_
*93 _074_
*94 _075_
*95 _076_
*96 _077_
*97 _078_
*98 _079_
*99 _080_
*100 _081_
*101 _082_
*102 _083_
*103 _084_
*104 _085_
*105 _086_
*106 _087_
*107 _088_
*108 _089_
*109 _090_
*110 _091_
*111 _092_
*112 _093_
*113 _094_
*114 _095_
*115 _096_
*116 _097_
*117 _098_
*118 _099_
*119 _100_
*120 _101_
*121 _102_
*122 _103_
*123 _104_
*124 _105_
*125 _106_
*126 _107_
*127 _108_
*128 _109_
*129 _110_
*130 _111_
*131 _112_
*132 _113_
*133 _114_
*134 _115_
*135 _116_
*136 _117_
*137 _118_
*138 _119_
*139 _120_
*140 _121_
*141 _122_
*142 _123_
*143 _124_
*144 _125_
*145 _126_
*146 _127_
*147 _128_
*148 _129_
*149 _130_
*150 _131_
*151 _132_
*152 _133_
*153 _134_
*154 _135_
*155 _136_
*156 _137_
*157 _138_
*158 _139_
*159 _140_
*160 _141_
*161 _142_
*162 _143_
*163 _144_
*164 _145_
*165 _146_
*166 _147_
*167 _148_
*168 _149_
*169 _150_
*170 _151_
*171 _152_
*172 _153_
*173 _154_
*174 _155_
*175 _156_
*176 _157_
*177 _158_
*178 _159_
*179 _160_
*180 _161_
*181 _162_
*182 _163_
*183 _164_
*184 _165_
*185 _166_
*186 _167_
*187 _168_
*188 _169_
*189 _170_
*190 _171_
*191 _172_
*192 _173_
*193 _174_
*194 _175_
*195 _176_
*196 _177_
*197 _178_
*198 _179_
*199 _180_
*200 _181_
*201 _182_
*202 _183_
*203 _184_
*204 _185_
*205 _186_
*206 _187_
*207 _188_
*208 _189_
*209 _190_
*210 _191_
*211 _192_
*212 _193_
*213 _194_
*214 _195_
*215 _196_
*216 _197_
*217 _198_
*218 _199_
*219 _200_
*220 _201_
*221 _202_
*222 _203_
*223 _204_
*224 _205_
*225 _206_
*226 _207_
*227 _208_
*228 _209_
*229 _210_
*230 _211_
*231 _212_
*232 _213_
*233 _214_
*234 _215_
*235 _216_
*236 _217_
*237 _218_
*238 _219_
*239 _220_
*240 _221_
*241 _222_
*242 _223_
*243 _224_
*244 _225_
*245 _226_
*246 _227_
*247 _228_
*248 _229_
*249 _230_
*250 _231_
*251 _232_
*252 _233_
*253 _234_
*254 _235_
*255 _236_
*256 _237_
*257 _238_
*258 _239_
*259 _240_
*260 _241_
*261 _242_
*262 _243_
*263 _244_
*264 _245_
*265 _246_
*266 _247_
*267 _248_
*268 _249_
*269 _250_
*270 _251_
*271 _252_
*272 _253_
*273 _254_
*274 _255_
*275 _256_
*276 _257_
*277 _258_
*278 _259_
*279 _260_
*280 _261_
*281 _262_
*282 _263_
*283 _264_
*284 _265_
*285 _266_
*286 _267_
*287 _268_
*288 _269_
*289 _270_
*290 _271_
*291 _272_
*292 _273_
*293 _274_
*294 _275_
*295 _276_
*296 _277_
*297 _278_
*298 _279_
*299 _280_
*300 _281_
*301 _282_
*302 _283_
*303 _284_
*304 _285_
*305 _286_
*306 _287_
*307 _288_
*308 _289_
*309 _290_
*310 _291_
*311 _292_
*312 _293_
*313 _294_
*314 _295_
*315 _296_
*316 _297_
*317 _298_
*318 _299_
*319 _300_
*320 _301_
*321 _302_
*322 _303_
*323 _304_
*324 _305_
*325 _306_
*326 _307_
*327 _308_
*328 _309_
*329 _310_
*330 _311_
*331 _312_
*332 _313_
*333 _314_
*334 _315_
*335 _316_
*336 _317_
*337 _318_
*338 _319_
*339 _320_
*340 _321_
*341 _322_
*342 _323_
*343 _324_
*344 _325_
*345 _326_
*346 _327_
*347 _328_
*348 _329_
*349 _330_
*350 _331_
*351 _332_
*352 _333_
*353 _334_
*354 _335_
*355 _336_
*356 _337_
*357 _338_
*358 _339_
*359 _340_
*360 _341_
*361 _342_
*362 _343_
*363 _344_
*364 _345_
*365 _346_
*366 _347_
*367 _348_
*368 _349_
*369 _350_
*370 _351_
*371 _352_
*372 _353_
*373 _354_
*374 _355_
*375 _356_
*376 _357_
*377 _358_
*378 _359_
*379 _360_
*380 _361_
*381 _362_
*382 _363_
*383 _364_
*384 _365_
*385 _366_
*386 _367_
*387 _368_
*388 _369_
*389 _370_
*390 _371_
*391 _372_
*392 _373_
*393 _374_
*394 _375_
*395 _376_
*396 _377_
*397 _378_
*398 _379_
*399 _380_
*400 _381_
*401 _382_
*402 _383_
*403 _384_
*404 _385_
*405 _386_
*406 _387_
*407 _388_
*408 _389_
*409 _390_
*410 _391_
*411 _392_
*412 _393_
*413 _394_
*414 _395_
*415 _396_
*416 _397_
*417 _398_
*418 _399_
*419 _400_
*420 _401_
*421 _402_
*422 _403_
*423 _404_
*424 _405_
*425 _406_
*426 _407_
*427 _408_
*428 clknet_0_io_in[0]
*429 clknet_2_0__leaf_io_in[0]
*430 clknet_2_1__leaf_io_in[0]
*431 clknet_2_2__leaf_io_in[0]
*432 clknet_2_3__leaf_io_in[0]
*433 lcd\.en
*434 lcd\.hour_inc_1d
*435 lcd\.idx\[0\]
*436 lcd\.idx\[1\]
*437 lcd\.idx\[2\]
*438 lcd\.idx\[3\]
*439 lcd\.idx\[4\]
*440 lcd\.init_state\[0\]
*441 lcd\.init_state\[1\]
*442 lcd\.init_state\[2\]
*443 lcd\.init_state\[3\]
*444 lcd\.init_state\[4\]
*445 lcd\.init_state\[5\]
*446 lcd\.min_inc_1d
*447 lcd\.rs
*448 lcd\.time_divider\[0\]
*449 lcd\.time_divider\[10\]
*450 lcd\.time_divider\[11\]
*451 lcd\.time_divider\[12\]
*452 lcd\.time_divider\[13\]
*453 lcd\.time_divider\[14\]
*454 lcd\.time_divider\[15\]
*455 lcd\.time_divider\[1\]
*456 lcd\.time_divider\[2\]
*457 lcd\.time_divider\[3\]
*458 lcd\.time_divider\[4\]
*459 lcd\.time_divider\[5\]
*460 lcd\.time_divider\[6\]
*461 lcd\.time_divider\[7\]
*462 lcd\.time_divider\[8\]
*463 lcd\.time_divider\[9\]
*464 lcd\.time_hours\[0\]
*465 lcd\.time_hours\[1\]
*466 lcd\.time_hours\[2\]
*467 lcd\.time_hours\[3\]
*468 lcd\.time_hours\[4\]
*469 lcd\.time_minutes\[0\]
*470 lcd\.time_minutes\[1\]
*471 lcd\.time_minutes\[2\]
*472 lcd\.time_minutes\[3\]
*473 lcd\.time_minutes\[4\]
*474 lcd\.time_minutes\[5\]
*475 lcd\.time_seconds\[0\]
*476 lcd\.time_seconds\[1\]
*477 lcd\.time_seconds\[2\]
*478 lcd\.time_seconds\[3\]
*479 lcd\.time_seconds\[4\]
*480 lcd\.time_seconds\[5\]
*481 net1
*482 net2
*483 net3
*484 ANTENNA_1
*485 ANTENNA_10
*486 ANTENNA_11
*487 ANTENNA_12
*488 ANTENNA_13
*489 ANTENNA_14
*490 ANTENNA_2
*491 ANTENNA_3
*492 ANTENNA_4
*493 ANTENNA_5
*494 ANTENNA_6
*495 ANTENNA_7
*496 ANTENNA_8
*497 ANTENNA_9
*498 FILLER_0_104
*499 FILLER_0_113
*500 FILLER_0_118
*501 FILLER_0_125
*502 FILLER_0_137
*503 FILLER_0_141
*504 FILLER_0_153
*505 FILLER_0_166
*506 FILLER_0_169
*507 FILLER_0_181
*508 FILLER_0_193
*509 FILLER_0_197
*510 FILLER_0_209
*511 FILLER_0_221
*512 FILLER_0_225
*513 FILLER_0_237
*514 FILLER_0_249
*515 FILLER_0_253
*516 FILLER_0_26
*517 FILLER_0_265
*518 FILLER_0_277
*519 FILLER_0_281
*520 FILLER_0_29
*521 FILLER_0_293
*522 FILLER_0_3
*523 FILLER_0_54
*524 FILLER_0_57
*525 FILLER_0_77
*526 FILLER_0_81
*527 FILLER_0_85
*528 FILLER_10_109
*529 FILLER_10_121
*530 FILLER_10_136
*531 FILLER_10_141
*532 FILLER_10_149
*533 FILLER_10_153
*534 FILLER_10_161
*535 FILLER_10_165
*536 FILLER_10_172
*537 FILLER_10_182
*538 FILLER_10_194
*539 FILLER_10_197
*540 FILLER_10_209
*541 FILLER_10_221
*542 FILLER_10_233
*543 FILLER_10_245
*544 FILLER_10_251
*545 FILLER_10_253
*546 FILLER_10_26
*547 FILLER_10_265
*548 FILLER_10_277
*549 FILLER_10_289
*550 FILLER_10_29
*551 FILLER_10_297
*552 FILLER_10_3
*553 FILLER_10_48
*554 FILLER_10_52
*555 FILLER_10_74
*556 FILLER_10_82
*557 FILLER_10_85
*558 FILLER_10_99
*559 FILLER_11_110
*560 FILLER_11_113
*561 FILLER_11_125
*562 FILLER_11_133
*563 FILLER_11_138
*564 FILLER_11_15
*565 FILLER_11_150
*566 FILLER_11_162
*567 FILLER_11_169
*568 FILLER_11_181
*569 FILLER_11_193
*570 FILLER_11_205
*571 FILLER_11_217
*572 FILLER_11_223
*573 FILLER_11_225
*574 FILLER_11_237
*575 FILLER_11_249
*576 FILLER_11_261
*577 FILLER_11_273
*578 FILLER_11_279
*579 FILLER_11_281
*580 FILLER_11_293
*581 FILLER_11_3
*582 FILLER_11_36
*583 FILLER_11_48
*584 FILLER_11_57
*585 FILLER_11_76
*586 FILLER_11_88
*587 FILLER_11_94
*588 FILLER_11_98
*589 FILLER_12_100
*590 FILLER_12_108
*591 FILLER_12_120
*592 FILLER_12_128
*593 FILLER_12_141
*594 FILLER_12_153
*595 FILLER_12_165
*596 FILLER_12_177
*597 FILLER_12_189
*598 FILLER_12_195
*599 FILLER_12_197
*600 FILLER_12_209
*601 FILLER_12_221
*602 FILLER_12_23
*603 FILLER_12_233
*604 FILLER_12_245
*605 FILLER_12_251
*606 FILLER_12_253
*607 FILLER_12_265
*608 FILLER_12_27
*609 FILLER_12_277
*610 FILLER_12_289
*611 FILLER_12_29
*612 FILLER_12_297
*613 FILLER_12_3
*614 FILLER_12_35
*615 FILLER_12_52
*616 FILLER_12_72
*617 FILLER_12_85
*618 FILLER_12_92
*619 FILLER_13_103
*620 FILLER_13_111
*621 FILLER_13_113
*622 FILLER_13_125
*623 FILLER_13_137
*624 FILLER_13_149
*625 FILLER_13_15
*626 FILLER_13_161
*627 FILLER_13_167
*628 FILLER_13_169
*629 FILLER_13_181
*630 FILLER_13_192
*631 FILLER_13_204
*632 FILLER_13_216
*633 FILLER_13_225
*634 FILLER_13_237
*635 FILLER_13_249
*636 FILLER_13_261
*637 FILLER_13_273
*638 FILLER_13_279
*639 FILLER_13_281
*640 FILLER_13_293
*641 FILLER_13_3
*642 FILLER_13_36
*643 FILLER_13_48
*644 FILLER_13_57
*645 FILLER_13_76
*646 FILLER_13_80
*647 FILLER_13_84
*648 FILLER_13_93
*649 FILLER_14_110
*650 FILLER_14_122
*651 FILLER_14_133
*652 FILLER_14_139
*653 FILLER_14_141
*654 FILLER_14_146
*655 FILLER_14_150
*656 FILLER_14_158
*657 FILLER_14_175
*658 FILLER_14_187
*659 FILLER_14_195
*660 FILLER_14_197
*661 FILLER_14_209
*662 FILLER_14_22
*663 FILLER_14_221
*664 FILLER_14_233
*665 FILLER_14_245
*666 FILLER_14_251
*667 FILLER_14_253
*668 FILLER_14_265
*669 FILLER_14_277
*670 FILLER_14_289
*671 FILLER_14_29
*672 FILLER_14_297
*673 FILLER_14_3
*674 FILLER_14_48
*675 FILLER_14_73
*676 FILLER_14_81
*677 FILLER_14_85
*678 FILLER_14_91
*679 FILLER_14_98
*680 FILLER_15_104
*681 FILLER_15_113
*682 FILLER_15_125
*683 FILLER_15_132
*684 FILLER_15_142
*685 FILLER_15_149
*686 FILLER_15_161
*687 FILLER_15_167
*688 FILLER_15_169
*689 FILLER_15_181
*690 FILLER_15_185
*691 FILLER_15_191
*692 FILLER_15_203
*693 FILLER_15_215
*694 FILLER_15_22
*695 FILLER_15_223
*696 FILLER_15_225
*697 FILLER_15_237
*698 FILLER_15_249
*699 FILLER_15_261
*700 FILLER_15_273
*701 FILLER_15_279
*702 FILLER_15_281
*703 FILLER_15_293
*704 FILLER_15_3
*705 FILLER_15_34
*706 FILLER_15_54
*707 FILLER_15_57
*708 FILLER_15_76
*709 FILLER_15_82
*710 FILLER_15_87
*711 FILLER_15_95
*712 FILLER_16_105
*713 FILLER_16_117
*714 FILLER_16_129
*715 FILLER_16_133
*716 FILLER_16_137
*717 FILLER_16_141
*718 FILLER_16_147
*719 FILLER_16_159
*720 FILLER_16_167
*721 FILLER_16_179
*722 FILLER_16_191
*723 FILLER_16_195
*724 FILLER_16_197
*725 FILLER_16_205
*726 FILLER_16_21
*727 FILLER_16_217
*728 FILLER_16_229
*729 FILLER_16_241
*730 FILLER_16_249
*731 FILLER_16_253
*732 FILLER_16_265
*733 FILLER_16_27
*734 FILLER_16_277
*735 FILLER_16_289
*736 FILLER_16_29
*737 FILLER_16_297
*738 FILLER_16_3
*739 FILLER_16_49
*740 FILLER_16_70
*741 FILLER_16_82
*742 FILLER_16_85
*743 FILLER_16_93
*744 FILLER_17_110
*745 FILLER_17_113
*746 FILLER_17_120
*747 FILLER_17_124
*748 FILLER_17_131
*749 FILLER_17_135
*750 FILLER_17_145
*751 FILLER_17_154
*752 FILLER_17_166
*753 FILLER_17_169
*754 FILLER_17_181
*755 FILLER_17_193
*756 FILLER_17_205
*757 FILLER_17_21
*758 FILLER_17_217
*759 FILLER_17_223
*760 FILLER_17_225
*761 FILLER_17_237
*762 FILLER_17_249
*763 FILLER_17_261
*764 FILLER_17_27
*765 FILLER_17_273
*766 FILLER_17_279
*767 FILLER_17_281
*768 FILLER_17_293
*769 FILLER_17_3
*770 FILLER_17_44
*771 FILLER_17_57
*772 FILLER_17_75
*773 FILLER_17_83
*774 FILLER_17_90
*775 FILLER_17_98
*776 FILLER_18_105
*777 FILLER_18_123
*778 FILLER_18_131
*779 FILLER_18_138
*780 FILLER_18_141
*781 FILLER_18_146
*782 FILLER_18_153
*783 FILLER_18_163
*784 FILLER_18_175
*785 FILLER_18_187
*786 FILLER_18_194
*787 FILLER_18_197
*788 FILLER_18_204
*789 FILLER_18_21
*790 FILLER_18_216
*791 FILLER_18_228
*792 FILLER_18_239
*793 FILLER_18_251
*794 FILLER_18_253
*795 FILLER_18_265
*796 FILLER_18_27
*797 FILLER_18_277
*798 FILLER_18_289
*799 FILLER_18_29
*800 FILLER_18_297
*801 FILLER_18_3
*802 FILLER_18_35
*803 FILLER_18_39
*804 FILLER_18_50
*805 FILLER_18_63
*806 FILLER_18_70
*807 FILLER_18_82
*808 FILLER_18_85
*809 FILLER_18_93
*810 FILLER_19_10
*811 FILLER_19_106
*812 FILLER_19_110
*813 FILLER_19_113
*814 FILLER_19_124
*815 FILLER_19_130
*816 FILLER_19_137
*817 FILLER_19_141
*818 FILLER_19_146
*819 FILLER_19_157
*820 FILLER_19_164
*821 FILLER_19_169
*822 FILLER_19_17
*823 FILLER_19_179
*824 FILLER_19_191
*825 FILLER_19_203
*826 FILLER_19_215
*827 FILLER_19_223
*828 FILLER_19_225
*829 FILLER_19_237
*830 FILLER_19_249
*831 FILLER_19_261
*832 FILLER_19_270
*833 FILLER_19_278
*834 FILLER_19_28
*835 FILLER_19_281
*836 FILLER_19_293
*837 FILLER_19_3
*838 FILLER_19_37
*839 FILLER_19_48
*840 FILLER_19_57
*841 FILLER_19_66
*842 FILLER_19_75
*843 FILLER_19_81
*844 FILLER_19_91
*845 FILLER_19_98
*846 FILLER_1_108
*847 FILLER_1_113
*848 FILLER_1_12
*849 FILLER_1_123
*850 FILLER_1_131
*851 FILLER_1_136
*852 FILLER_1_144
*853 FILLER_1_158
*854 FILLER_1_166
*855 FILLER_1_169
*856 FILLER_1_176
*857 FILLER_1_187
*858 FILLER_1_199
*859 FILLER_1_211
*860 FILLER_1_223
*861 FILLER_1_225
*862 FILLER_1_237
*863 FILLER_1_249
*864 FILLER_1_261
*865 FILLER_1_273
*866 FILLER_1_279
*867 FILLER_1_281
*868 FILLER_1_293
*869 FILLER_1_3
*870 FILLER_1_31
*871 FILLER_1_35
*872 FILLER_1_54
*873 FILLER_1_57
*874 FILLER_1_75
*875 FILLER_1_79
*876 FILLER_1_9
*877 FILLER_1_98
*878 FILLER_20_10
*879 FILLER_20_108
*880 FILLER_20_112
*881 FILLER_20_118
*882 FILLER_20_126
*883 FILLER_20_134
*884 FILLER_20_141
*885 FILLER_20_149
*886 FILLER_20_162
*887 FILLER_20_170
*888 FILLER_20_179
*889 FILLER_20_191
*890 FILLER_20_195
*891 FILLER_20_197
*892 FILLER_20_202
*893 FILLER_20_206
*894 FILLER_20_210
*895 FILLER_20_222
*896 FILLER_20_234
*897 FILLER_20_246
*898 FILLER_20_253
*899 FILLER_20_26
*900 FILLER_20_265
*901 FILLER_20_277
*902 FILLER_20_289
*903 FILLER_20_29
*904 FILLER_20_297
*905 FILLER_20_3
*906 FILLER_20_42
*907 FILLER_20_53
*908 FILLER_20_61
*909 FILLER_20_74
*910 FILLER_20_81
*911 FILLER_20_85
*912 FILLER_20_93
*913 FILLER_20_99
*914 FILLER_21_102
*915 FILLER_21_110
*916 FILLER_21_113
*917 FILLER_21_119
*918 FILLER_21_135
*919 FILLER_21_148
*920 FILLER_21_156
*921 FILLER_21_163
*922 FILLER_21_167
*923 FILLER_21_169
*924 FILLER_21_181
*925 FILLER_21_194
*926 FILLER_21_206
*927 FILLER_21_218
*928 FILLER_21_22
*929 FILLER_21_225
*930 FILLER_21_237
*931 FILLER_21_249
*932 FILLER_21_261
*933 FILLER_21_273
*934 FILLER_21_279
*935 FILLER_21_281
*936 FILLER_21_29
*937 FILLER_21_293
*938 FILLER_21_3
*939 FILLER_21_41
*940 FILLER_21_48
*941 FILLER_21_57
*942 FILLER_21_70
*943 FILLER_21_76
*944 FILLER_21_85
*945 FILLER_21_9
*946 FILLER_21_94
*947 FILLER_22_103
*948 FILLER_22_113
*949 FILLER_22_117
*950 FILLER_22_12
*951 FILLER_22_121
*952 FILLER_22_133
*953 FILLER_22_139
*954 FILLER_22_141
*955 FILLER_22_152
*956 FILLER_22_161
*957 FILLER_22_171
*958 FILLER_22_177
*959 FILLER_22_182
*960 FILLER_22_189
*961 FILLER_22_195
*962 FILLER_22_197
*963 FILLER_22_20
*964 FILLER_22_210
*965 FILLER_22_222
*966 FILLER_22_234
*967 FILLER_22_246
*968 FILLER_22_253
*969 FILLER_22_26
*970 FILLER_22_267
*971 FILLER_22_279
*972 FILLER_22_29
*973 FILLER_22_291
*974 FILLER_22_3
*975 FILLER_22_33
*976 FILLER_22_41
*977 FILLER_22_48
*978 FILLER_22_62
*979 FILLER_22_71
*980 FILLER_22_83
*981 FILLER_22_85
*982 FILLER_22_95
*983 FILLER_23_110
*984 FILLER_23_113
*985 FILLER_23_127
*986 FILLER_23_13
*987 FILLER_23_135
*988 FILLER_23_144
*989 FILLER_23_155
*990 FILLER_23_165
*991 FILLER_23_169
*992 FILLER_23_17
*993 FILLER_23_175
*994 FILLER_23_179
*995 FILLER_23_191
*996 FILLER_23_195
*997 FILLER_23_201
*998 FILLER_23_213
*999 FILLER_23_221
*1000 FILLER_23_225
*1001 FILLER_23_237
*1002 FILLER_23_24
*1003 FILLER_23_249
*1004 FILLER_23_261
*1005 FILLER_23_273
*1006 FILLER_23_279
*1007 FILLER_23_281
*1008 FILLER_23_293
*1009 FILLER_23_3
*1010 FILLER_23_35
*1011 FILLER_23_46
*1012 FILLER_23_54
*1013 FILLER_23_57
*1014 FILLER_23_65
*1015 FILLER_23_74
*1016 FILLER_23_82
*1017 FILLER_23_86
*1018 FILLER_23_90
*1019 FILLER_23_97
*1020 FILLER_24_105
*1021 FILLER_24_115
*1022 FILLER_24_125
*1023 FILLER_24_138
*1024 FILLER_24_141
*1025 FILLER_24_148
*1026 FILLER_24_15
*1027 FILLER_24_155
*1028 FILLER_24_163
*1029 FILLER_24_168
*1030 FILLER_24_182
*1031 FILLER_24_19
*1032 FILLER_24_194
*1033 FILLER_24_197
*1034 FILLER_24_209
*1035 FILLER_24_221
*1036 FILLER_24_233
*1037 FILLER_24_245
*1038 FILLER_24_25
*1039 FILLER_24_251
*1040 FILLER_24_253
*1041 FILLER_24_265
*1042 FILLER_24_277
*1043 FILLER_24_289
*1044 FILLER_24_29
*1045 FILLER_24_297
*1046 FILLER_24_3
*1047 FILLER_24_37
*1048 FILLER_24_43
*1049 FILLER_24_49
*1050 FILLER_24_59
*1051 FILLER_24_66
*1052 FILLER_24_82
*1053 FILLER_24_85
*1054 FILLER_24_89
*1055 FILLER_24_9
*1056 FILLER_24_94
*1057 FILLER_25_107
*1058 FILLER_25_111
*1059 FILLER_25_113
*1060 FILLER_25_125
*1061 FILLER_25_129
*1062 FILLER_25_139
*1063 FILLER_25_150
*1064 FILLER_25_159
*1065 FILLER_25_167
*1066 FILLER_25_169
*1067 FILLER_25_17
*1068 FILLER_25_181
*1069 FILLER_25_193
*1070 FILLER_25_205
*1071 FILLER_25_211
*1072 FILLER_25_221
*1073 FILLER_25_225
*1074 FILLER_25_237
*1075 FILLER_25_249
*1076 FILLER_25_26
*1077 FILLER_25_261
*1078 FILLER_25_273
*1079 FILLER_25_279
*1080 FILLER_25_281
*1081 FILLER_25_293
*1082 FILLER_25_3
*1083 FILLER_25_35
*1084 FILLER_25_43
*1085 FILLER_25_52
*1086 FILLER_25_57
*1087 FILLER_25_69
*1088 FILLER_25_81
*1089 FILLER_25_9
*1090 FILLER_25_90
*1091 FILLER_26_108
*1092 FILLER_26_116
*1093 FILLER_26_123
*1094 FILLER_26_132
*1095 FILLER_26_141
*1096 FILLER_26_149
*1097 FILLER_26_156
*1098 FILLER_26_168
*1099 FILLER_26_172
*1100 FILLER_26_181
*1101 FILLER_26_187
*1102 FILLER_26_192
*1103 FILLER_26_197
*1104 FILLER_26_20
*1105 FILLER_26_209
*1106 FILLER_26_221
*1107 FILLER_26_233
*1108 FILLER_26_245
*1109 FILLER_26_251
*1110 FILLER_26_253
*1111 FILLER_26_265
*1112 FILLER_26_277
*1113 FILLER_26_289
*1114 FILLER_26_29
*1115 FILLER_26_297
*1116 FILLER_26_3
*1117 FILLER_26_33
*1118 FILLER_26_39
*1119 FILLER_26_48
*1120 FILLER_26_56
*1121 FILLER_26_68
*1122 FILLER_26_8
*1123 FILLER_26_80
*1124 FILLER_26_85
*1125 FILLER_26_91
*1126 FILLER_27_110
*1127 FILLER_27_113
*1128 FILLER_27_125
*1129 FILLER_27_134
*1130 FILLER_27_142
*1131 FILLER_27_150
*1132 FILLER_27_158
*1133 FILLER_27_16
*1134 FILLER_27_166
*1135 FILLER_27_169
*1136 FILLER_27_181
*1137 FILLER_27_193
*1138 FILLER_27_205
*1139 FILLER_27_214
*1140 FILLER_27_222
*1141 FILLER_27_225
*1142 FILLER_27_23
*1143 FILLER_27_237
*1144 FILLER_27_243
*1145 FILLER_27_249
*1146 FILLER_27_261
*1147 FILLER_27_273
*1148 FILLER_27_279
*1149 FILLER_27_281
*1150 FILLER_27_293
*1151 FILLER_27_3
*1152 FILLER_27_35
*1153 FILLER_27_47
*1154 FILLER_27_55
*1155 FILLER_27_57
*1156 FILLER_27_64
*1157 FILLER_27_72
*1158 FILLER_27_8
*1159 FILLER_27_86
*1160 FILLER_27_98
*1161 FILLER_28_110
*1162 FILLER_28_122
*1163 FILLER_28_133
*1164 FILLER_28_139
*1165 FILLER_28_141
*1166 FILLER_28_148
*1167 FILLER_28_15
*1168 FILLER_28_160
*1169 FILLER_28_171
*1170 FILLER_28_183
*1171 FILLER_28_192
*1172 FILLER_28_197
*1173 FILLER_28_209
*1174 FILLER_28_221
*1175 FILLER_28_233
*1176 FILLER_28_245
*1177 FILLER_28_251
*1178 FILLER_28_253
*1179 FILLER_28_26
*1180 FILLER_28_265
*1181 FILLER_28_277
*1182 FILLER_28_289
*1183 FILLER_28_29
*1184 FILLER_28_297
*1185 FILLER_28_3
*1186 FILLER_28_41
*1187 FILLER_28_45
*1188 FILLER_28_51
*1189 FILLER_28_61
*1190 FILLER_28_69
*1191 FILLER_28_81
*1192 FILLER_28_85
*1193 FILLER_28_98
*1194 FILLER_29_109
*1195 FILLER_29_113
*1196 FILLER_29_126
*1197 FILLER_29_130
*1198 FILLER_29_138
*1199 FILLER_29_150
*1200 FILLER_29_16
*1201 FILLER_29_162
*1202 FILLER_29_169
*1203 FILLER_29_176
*1204 FILLER_29_188
*1205 FILLER_29_200
*1206 FILLER_29_211
*1207 FILLER_29_223
*1208 FILLER_29_225
*1209 FILLER_29_237
*1210 FILLER_29_249
*1211 FILLER_29_261
*1212 FILLER_29_273
*1213 FILLER_29_279
*1214 FILLER_29_28
*1215 FILLER_29_281
*1216 FILLER_29_293
*1217 FILLER_29_3
*1218 FILLER_29_40
*1219 FILLER_29_46
*1220 FILLER_29_54
*1221 FILLER_29_57
*1222 FILLER_29_63
*1223 FILLER_29_69
*1224 FILLER_29_81
*1225 FILLER_29_87
*1226 FILLER_29_93
*1227 FILLER_2_101
*1228 FILLER_2_105
*1229 FILLER_2_123
*1230 FILLER_2_132
*1231 FILLER_2_141
*1232 FILLER_2_153
*1233 FILLER_2_162
*1234 FILLER_2_174
*1235 FILLER_2_186
*1236 FILLER_2_194
*1237 FILLER_2_197
*1238 FILLER_2_209
*1239 FILLER_2_221
*1240 FILLER_2_233
*1241 FILLER_2_24
*1242 FILLER_2_245
*1243 FILLER_2_251
*1244 FILLER_2_253
*1245 FILLER_2_265
*1246 FILLER_2_277
*1247 FILLER_2_289
*1248 FILLER_2_29
*1249 FILLER_2_297
*1250 FILLER_2_3
*1251 FILLER_2_41
*1252 FILLER_2_65
*1253 FILLER_2_77
*1254 FILLER_2_83
*1255 FILLER_30_100
*1256 FILLER_30_112
*1257 FILLER_30_129
*1258 FILLER_30_137
*1259 FILLER_30_141
*1260 FILLER_30_145
*1261 FILLER_30_149
*1262 FILLER_30_15
*1263 FILLER_30_161
*1264 FILLER_30_173
*1265 FILLER_30_185
*1266 FILLER_30_192
*1267 FILLER_30_197
*1268 FILLER_30_205
*1269 FILLER_30_220
*1270 FILLER_30_228
*1271 FILLER_30_234
*1272 FILLER_30_246
*1273 FILLER_30_253
*1274 FILLER_30_265
*1275 FILLER_30_27
*1276 FILLER_30_277
*1277 FILLER_30_289
*1278 FILLER_30_29
*1279 FILLER_30_297
*1280 FILLER_30_3
*1281 FILLER_30_41
*1282 FILLER_30_48
*1283 FILLER_30_60
*1284 FILLER_30_64
*1285 FILLER_30_73
*1286 FILLER_30_80
*1287 FILLER_30_85
*1288 FILLER_30_91
*1289 FILLER_31_11
*1290 FILLER_31_110
*1291 FILLER_31_113
*1292 FILLER_31_125
*1293 FILLER_31_137
*1294 FILLER_31_149
*1295 FILLER_31_161
*1296 FILLER_31_167
*1297 FILLER_31_169
*1298 FILLER_31_181
*1299 FILLER_31_192
*1300 FILLER_31_204
*1301 FILLER_31_216
*1302 FILLER_31_225
*1303 FILLER_31_23
*1304 FILLER_31_237
*1305 FILLER_31_249
*1306 FILLER_31_261
*1307 FILLER_31_27
*1308 FILLER_31_273
*1309 FILLER_31_279
*1310 FILLER_31_281
*1311 FILLER_31_293
*1312 FILLER_31_3
*1313 FILLER_31_35
*1314 FILLER_31_49
*1315 FILLER_31_55
*1316 FILLER_31_57
*1317 FILLER_31_62
*1318 FILLER_31_74
*1319 FILLER_31_86
*1320 FILLER_31_98
*1321 FILLER_32_109
*1322 FILLER_32_114
*1323 FILLER_32_12
*1324 FILLER_32_129
*1325 FILLER_32_138
*1326 FILLER_32_141
*1327 FILLER_32_149
*1328 FILLER_32_161
*1329 FILLER_32_170
*1330 FILLER_32_182
*1331 FILLER_32_188
*1332 FILLER_32_194
*1333 FILLER_32_197
*1334 FILLER_32_209
*1335 FILLER_32_221
*1336 FILLER_32_233
*1337 FILLER_32_237
*1338 FILLER_32_24
*1339 FILLER_32_241
*1340 FILLER_32_249
*1341 FILLER_32_253
*1342 FILLER_32_265
*1343 FILLER_32_277
*1344 FILLER_32_289
*1345 FILLER_32_29
*1346 FILLER_32_297
*1347 FILLER_32_3
*1348 FILLER_32_41
*1349 FILLER_32_49
*1350 FILLER_32_55
*1351 FILLER_32_67
*1352 FILLER_32_79
*1353 FILLER_32_83
*1354 FILLER_32_85
*1355 FILLER_32_97
*1356 FILLER_33_110
*1357 FILLER_33_113
*1358 FILLER_33_119
*1359 FILLER_33_126
*1360 FILLER_33_138
*1361 FILLER_33_14
*1362 FILLER_33_158
*1363 FILLER_33_166
*1364 FILLER_33_169
*1365 FILLER_33_181
*1366 FILLER_33_193
*1367 FILLER_33_205
*1368 FILLER_33_217
*1369 FILLER_33_223
*1370 FILLER_33_225
*1371 FILLER_33_229
*1372 FILLER_33_233
*1373 FILLER_33_245
*1374 FILLER_33_257
*1375 FILLER_33_26
*1376 FILLER_33_269
*1377 FILLER_33_277
*1378 FILLER_33_281
*1379 FILLER_33_293
*1380 FILLER_33_3
*1381 FILLER_33_32
*1382 FILLER_33_39
*1383 FILLER_33_43
*1384 FILLER_33_49
*1385 FILLER_33_55
*1386 FILLER_33_57
*1387 FILLER_33_64
*1388 FILLER_33_84
*1389 FILLER_33_95
*1390 FILLER_34_105
*1391 FILLER_34_11
*1392 FILLER_34_111
*1393 FILLER_34_119
*1394 FILLER_34_131
*1395 FILLER_34_139
*1396 FILLER_34_141
*1397 FILLER_34_149
*1398 FILLER_34_155
*1399 FILLER_34_167
*1400 FILLER_34_179
*1401 FILLER_34_191
*1402 FILLER_34_195
*1403 FILLER_34_197
*1404 FILLER_34_209
*1405 FILLER_34_221
*1406 FILLER_34_23
*1407 FILLER_34_233
*1408 FILLER_34_245
*1409 FILLER_34_251
*1410 FILLER_34_253
*1411 FILLER_34_265
*1412 FILLER_34_27
*1413 FILLER_34_277
*1414 FILLER_34_289
*1415 FILLER_34_29
*1416 FILLER_34_297
*1417 FILLER_34_3
*1418 FILLER_34_39
*1419 FILLER_34_46
*1420 FILLER_34_58
*1421 FILLER_34_79
*1422 FILLER_34_83
*1423 FILLER_34_85
*1424 FILLER_34_89
*1425 FILLER_34_93
*1426 FILLER_35_102
*1427 FILLER_35_110
*1428 FILLER_35_113
*1429 FILLER_35_117
*1430 FILLER_35_124
*1431 FILLER_35_136
*1432 FILLER_35_148
*1433 FILLER_35_15
*1434 FILLER_35_160
*1435 FILLER_35_169
*1436 FILLER_35_181
*1437 FILLER_35_193
*1438 FILLER_35_205
*1439 FILLER_35_217
*1440 FILLER_35_222
*1441 FILLER_35_225
*1442 FILLER_35_23
*1443 FILLER_35_232
*1444 FILLER_35_244
*1445 FILLER_35_256
*1446 FILLER_35_268
*1447 FILLER_35_281
*1448 FILLER_35_293
*1449 FILLER_35_3
*1450 FILLER_35_35
*1451 FILLER_35_47
*1452 FILLER_35_55
*1453 FILLER_35_57
*1454 FILLER_35_63
*1455 FILLER_35_71
*1456 FILLER_35_78
*1457 FILLER_35_90
*1458 FILLER_36_108
*1459 FILLER_36_116
*1460 FILLER_36_13
*1461 FILLER_36_136
*1462 FILLER_36_141
*1463 FILLER_36_153
*1464 FILLER_36_165
*1465 FILLER_36_17
*1466 FILLER_36_177
*1467 FILLER_36_185
*1468 FILLER_36_194
*1469 FILLER_36_197
*1470 FILLER_36_209
*1471 FILLER_36_221
*1472 FILLER_36_233
*1473 FILLER_36_245
*1474 FILLER_36_251
*1475 FILLER_36_253
*1476 FILLER_36_26
*1477 FILLER_36_265
*1478 FILLER_36_277
*1479 FILLER_36_289
*1480 FILLER_36_29
*1481 FILLER_36_297
*1482 FILLER_36_3
*1483 FILLER_36_34
*1484 FILLER_36_43
*1485 FILLER_36_50
*1486 FILLER_36_57
*1487 FILLER_36_69
*1488 FILLER_36_81
*1489 FILLER_36_85
*1490 FILLER_36_97
*1491 FILLER_37_105
*1492 FILLER_37_111
*1493 FILLER_37_113
*1494 FILLER_37_122
*1495 FILLER_37_130
*1496 FILLER_37_136
*1497 FILLER_37_148
*1498 FILLER_37_159
*1499 FILLER_37_166
*1500 FILLER_37_169
*1501 FILLER_37_17
*1502 FILLER_37_175
*1503 FILLER_37_187
*1504 FILLER_37_199
*1505 FILLER_37_211
*1506 FILLER_37_22
*1507 FILLER_37_223
*1508 FILLER_37_225
*1509 FILLER_37_237
*1510 FILLER_37_249
*1511 FILLER_37_261
*1512 FILLER_37_273
*1513 FILLER_37_279
*1514 FILLER_37_281
*1515 FILLER_37_293
*1516 FILLER_37_3
*1517 FILLER_37_30
*1518 FILLER_37_42
*1519 FILLER_37_54
*1520 FILLER_37_57
*1521 FILLER_37_69
*1522 FILLER_37_81
*1523 FILLER_37_9
*1524 FILLER_37_93
*1525 FILLER_38_109
*1526 FILLER_38_121
*1527 FILLER_38_133
*1528 FILLER_38_139
*1529 FILLER_38_141
*1530 FILLER_38_148
*1531 FILLER_38_159
*1532 FILLER_38_171
*1533 FILLER_38_183
*1534 FILLER_38_195
*1535 FILLER_38_197
*1536 FILLER_38_209
*1537 FILLER_38_221
*1538 FILLER_38_23
*1539 FILLER_38_233
*1540 FILLER_38_245
*1541 FILLER_38_251
*1542 FILLER_38_253
*1543 FILLER_38_265
*1544 FILLER_38_27
*1545 FILLER_38_277
*1546 FILLER_38_289
*1547 FILLER_38_29
*1548 FILLER_38_297
*1549 FILLER_38_3
*1550 FILLER_38_34
*1551 FILLER_38_38
*1552 FILLER_38_43
*1553 FILLER_38_59
*1554 FILLER_38_71
*1555 FILLER_38_83
*1556 FILLER_38_85
*1557 FILLER_38_97
*1558 FILLER_39_104
*1559 FILLER_39_110
*1560 FILLER_39_113
*1561 FILLER_39_120
*1562 FILLER_39_132
*1563 FILLER_39_144
*1564 FILLER_39_15
*1565 FILLER_39_153
*1566 FILLER_39_165
*1567 FILLER_39_169
*1568 FILLER_39_181
*1569 FILLER_39_193
*1570 FILLER_39_205
*1571 FILLER_39_217
*1572 FILLER_39_223
*1573 FILLER_39_225
*1574 FILLER_39_237
*1575 FILLER_39_249
*1576 FILLER_39_261
*1577 FILLER_39_27
*1578 FILLER_39_273
*1579 FILLER_39_279
*1580 FILLER_39_281
*1581 FILLER_39_293
*1582 FILLER_39_3
*1583 FILLER_39_30
*1584 FILLER_39_41
*1585 FILLER_39_53
*1586 FILLER_39_57
*1587 FILLER_39_62
*1588 FILLER_39_69
*1589 FILLER_39_81
*1590 FILLER_39_87
*1591 FILLER_39_96
*1592 FILLER_3_105
*1593 FILLER_3_111
*1594 FILLER_3_113
*1595 FILLER_3_121
*1596 FILLER_3_133
*1597 FILLER_3_137
*1598 FILLER_3_141
*1599 FILLER_3_148
*1600 FILLER_3_15
*1601 FILLER_3_158
*1602 FILLER_3_166
*1603 FILLER_3_169
*1604 FILLER_3_181
*1605 FILLER_3_193
*1606 FILLER_3_205
*1607 FILLER_3_217
*1608 FILLER_3_223
*1609 FILLER_3_225
*1610 FILLER_3_237
*1611 FILLER_3_249
*1612 FILLER_3_261
*1613 FILLER_3_273
*1614 FILLER_3_279
*1615 FILLER_3_281
*1616 FILLER_3_293
*1617 FILLER_3_3
*1618 FILLER_3_36
*1619 FILLER_3_48
*1620 FILLER_3_74
*1621 FILLER_3_78
*1622 FILLER_3_96
*1623 FILLER_40_104
*1624 FILLER_40_112
*1625 FILLER_40_120
*1626 FILLER_40_132
*1627 FILLER_40_141
*1628 FILLER_40_153
*1629 FILLER_40_157
*1630 FILLER_40_164
*1631 FILLER_40_176
*1632 FILLER_40_188
*1633 FILLER_40_197
*1634 FILLER_40_209
*1635 FILLER_40_21
*1636 FILLER_40_221
*1637 FILLER_40_233
*1638 FILLER_40_245
*1639 FILLER_40_251
*1640 FILLER_40_253
*1641 FILLER_40_265
*1642 FILLER_40_27
*1643 FILLER_40_277
*1644 FILLER_40_289
*1645 FILLER_40_29
*1646 FILLER_40_297
*1647 FILLER_40_3
*1648 FILLER_40_47
*1649 FILLER_40_60
*1650 FILLER_40_68
*1651 FILLER_40_80
*1652 FILLER_40_85
*1653 FILLER_40_9
*1654 FILLER_40_92
*1655 FILLER_41_107
*1656 FILLER_41_11
*1657 FILLER_41_111
*1658 FILLER_41_113
*1659 FILLER_41_117
*1660 FILLER_41_128
*1661 FILLER_41_140
*1662 FILLER_41_152
*1663 FILLER_41_157
*1664 FILLER_41_165
*1665 FILLER_41_169
*1666 FILLER_41_179
*1667 FILLER_41_191
*1668 FILLER_41_203
*1669 FILLER_41_215
*1670 FILLER_41_222
*1671 FILLER_41_225
*1672 FILLER_41_23
*1673 FILLER_41_237
*1674 FILLER_41_249
*1675 FILLER_41_261
*1676 FILLER_41_273
*1677 FILLER_41_279
*1678 FILLER_41_281
*1679 FILLER_41_293
*1680 FILLER_41_3
*1681 FILLER_41_35
*1682 FILLER_41_43
*1683 FILLER_41_50
*1684 FILLER_41_57
*1685 FILLER_41_72
*1686 FILLER_41_88
*1687 FILLER_41_96
*1688 FILLER_42_115
*1689 FILLER_42_128
*1690 FILLER_42_141
*1691 FILLER_42_149
*1692 FILLER_42_15
*1693 FILLER_42_158
*1694 FILLER_42_166
*1695 FILLER_42_172
*1696 FILLER_42_184
*1697 FILLER_42_197
*1698 FILLER_42_20
*1699 FILLER_42_205
*1700 FILLER_42_217
*1701 FILLER_42_229
*1702 FILLER_42_241
*1703 FILLER_42_249
*1704 FILLER_42_253
*1705 FILLER_42_265
*1706 FILLER_42_277
*1707 FILLER_42_289
*1708 FILLER_42_29
*1709 FILLER_42_297
*1710 FILLER_42_3
*1711 FILLER_42_41
*1712 FILLER_42_49
*1713 FILLER_42_57
*1714 FILLER_42_65
*1715 FILLER_42_73
*1716 FILLER_42_82
*1717 FILLER_42_85
*1718 FILLER_42_94
*1719 FILLER_42_98
*1720 FILLER_43_101
*1721 FILLER_43_109
*1722 FILLER_43_113
*1723 FILLER_43_121