*SPEF "ieee 1481-1999"
*DESIGN "top_tt03"
*DATE "11:11:11 Fri 11 11, 1111"
*VENDOR "OpenRCX"
*PROGRAM "Parallel Extraction"
*VERSION "1.0"
*DESIGN_FLOW "NAME_SCOPE LOCAL" "PIN_CAP NONE"
*DIVIDER /
*DELIMITER :
*BUS_DELIMITER []
*T_UNIT 1 NS
*C_UNIT 1 PF
*R_UNIT 1 OHM
*L_UNIT 1 HENRY

*NAME_MAP
*1 io_in[0]
*2 io_in[1]
*3 io_in[2]
*4 io_in[3]
*5 io_in[4]
*6 io_in[5]
*7 io_in[6]
*8 io_in[7]
*9 io_out[0]
*10 io_out[1]
*11 io_out[2]
*12 io_out[3]
*13 io_out[4]
*14 io_out[5]
*15 io_out[6]
*16 io_out[7]
*19 _0000_
*20 _0001_
*21 _0002_
*22 _0003_
*23 _0004_
*24 _0005_
*25 _0006_
*26 _0007_
*27 _0008_
*28 _0009_
*29 _0010_
*30 _0011_
*31 _0012_
*32 _0013_
*33 _0014_
*34 _0015_
*35 _0016_
*36 _0017_
*37 _0018_
*38 _0019_
*39 _0020_
*40 _0021_
*41 _0022_
*42 _0023_
*43 _0024_
*44 _0025_
*45 _0026_
*46 _0027_
*47 _0028_
*48 _0029_
*49 _0030_
*50 _0031_
*51 _0032_
*52 _0033_
*53 _0034_
*54 _0035_
*55 _0036_
*56 _0037_
*57 _0038_
*58 _0039_
*59 _0040_
*60 _0041_
*61 _0042_
*62 _0043_
*63 _0044_
*64 _0045_
*65 _0046_
*66 _0047_
*67 _0048_
*68 _0049_
*69 _0050_
*70 _0051_
*71 _0052_
*72 _0053_
*73 _0054_
*74 _0055_
*75 _0056_
*76 _0057_
*77 _0058_
*78 _0059_
*79 _0060_
*80 _0061_
*81 _0062_
*82 _0063_
*83 _0064_
*84 _0065_
*85 _0066_
*86 _0067_
*87 _0068_
*88 _0069_
*89 _0070_
*90 _0071_
*91 _0072_
*92 _0073_
*93 _0074_
*94 _0075_
*95 _0076_
*96 _0077_
*97 _0078_
*98 _0079_
*99 _0080_
*100 _0081_
*101 _0082_
*102 _0083_
*103 _0084_
*104 _0085_
*105 _0086_
*106 _0087_
*107 _0088_
*108 _0089_
*109 _0090_
*110 _0091_
*111 _0092_
*112 _0093_
*113 _0094_
*114 _0095_
*115 _0096_
*116 _0097_
*117 _0098_
*118 _0099_
*119 _0100_
*120 _0101_
*121 _0102_
*122 _0103_
*123 _0104_
*124 _0105_
*125 _0106_
*126 _0107_
*127 _0108_
*128 _0109_
*129 _0110_
*130 _0111_
*131 _0112_
*132 _0113_
*133 _0114_
*134 _0115_
*135 _0116_
*136 _0117_
*137 _0118_
*138 _0119_
*139 _0120_
*140 _0121_
*141 _0122_
*142 _0123_
*143 _0124_
*144 _0125_
*145 _0126_
*146 _0127_
*147 _0128_
*148 _0129_
*149 _0130_
*150 _0131_
*151 _0132_
*152 _0133_
*153 _0134_
*154 _0135_
*155 _0136_
*156 _0137_
*157 _0138_
*158 _0139_
*159 _0140_
*160 _0141_
*161 _0142_
*162 _0143_
*163 _0144_
*164 _0145_
*165 _0146_
*166 _0147_
*167 _0148_
*168 _0149_
*169 _0150_
*170 _0151_
*171 _0152_
*172 _0153_
*173 _0154_
*174 _0155_
*175 _0156_
*176 _0157_
*177 _0158_
*178 _0159_
*179 _0160_
*180 _0161_
*181 _0162_
*182 _0163_
*183 _0164_
*184 _0165_
*185 _0166_
*186 _0167_
*187 _0168_
*188 _0169_
*189 _0170_
*190 _0171_
*191 _0172_
*192 _0173_
*193 _0174_
*194 _0175_
*195 _0176_
*196 _0177_
*197 _0178_
*198 _0179_
*199 _0180_
*200 _0181_
*201 _0182_
*202 _0183_
*203 _0184_
*204 _0185_
*205 _0186_
*206 _0187_
*207 _0188_
*208 _0189_
*209 _0190_
*210 _0191_
*211 _0192_
*212 _0193_
*213 _0194_
*214 _0195_
*215 _0196_
*216 _0197_
*217 _0198_
*218 _0199_
*219 _0200_
*220 _0201_
*221 _0202_
*222 _0203_
*223 _0204_
*224 _0205_
*225 _0206_
*226 _0207_
*227 _0208_
*228 _0209_
*229 _0210_
*230 _0211_
*231 _0212_
*232 _0213_
*233 _0214_
*234 _0215_
*235 _0216_
*236 _0217_
*237 _0218_
*238 _0219_
*239 _0220_
*240 _0221_
*241 _0222_
*242 _0223_
*243 _0224_
*244 _0225_
*245 _0226_
*246 _0227_
*247 _0228_
*248 _0229_
*249 _0230_
*250 _0231_
*251 _0232_
*252 _0233_
*253 _0234_
*254 _0235_
*255 _0236_
*256 _0237_
*257 _0238_
*258 _0239_
*259 _0240_
*260 _0241_
*261 _0242_
*262 _0243_
*263 _0244_
*264 _0245_
*265 _0246_
*266 _0247_
*267 _0248_
*268 _0249_
*269 _0250_
*270 _0251_
*271 _0252_
*272 _0253_
*273 _0254_
*274 _0255_
*275 _0256_
*276 _0257_
*277 _0258_
*278 _0259_
*279 _0260_
*280 _0261_
*281 _0262_
*282 _0263_
*283 _0264_
*284 _0265_
*285 _0266_
*286 _0267_
*287 _0268_
*288 _0269_
*289 _0270_
*290 _0271_
*291 _0272_
*292 _0273_
*293 _0274_
*294 _0275_
*295 _0276_
*296 _0277_
*297 _0278_
*298 _0279_
*299 _0280_
*300 _0281_
*301 _0282_
*302 _0283_
*303 _0284_
*304 _0285_
*305 _0286_
*306 _0287_
*307 _0288_
*308 _0289_
*309 _0290_
*310 _0291_
*311 _0292_
*312 _0293_
*313 _0294_
*314 _0295_
*315 _0296_
*316 _0297_
*317 _0298_
*318 _0299_
*319 _0300_
*320 _0301_
*321 _0302_
*322 _0303_
*323 _0304_
*324 _0305_
*325 _0306_
*326 _0307_
*327 _0308_
*328 _0309_
*329 _0310_
*330 _0311_
*331 _0312_
*332 _0313_
*333 _0314_
*334 _0315_
*335 _0316_
*336 _0317_
*337 _0318_
*338 _0319_
*339 _0320_
*340 _0321_
*341 _0322_
*342 _0323_
*343 _0324_
*344 _0325_
*345 _0326_
*346 _0327_
*347 _0328_
*348 _0329_
*349 _0330_
*350 _0331_
*351 _0332_
*352 _0333_
*353 _0334_
*354 _0335_
*355 _0336_
*356 _0337_
*357 _0338_
*358 _0339_
*359 _0340_
*360 _0341_
*361 _0342_
*362 _0343_
*363 _0344_
*364 _0345_
*365 _0346_
*366 _0347_
*367 _0348_
*368 _0349_
*369 _0350_
*370 _0351_
*371 _0352_
*372 _0353_
*373 _0354_
*374 _0355_
*375 _0356_
*376 _0357_
*377 _0358_
*378 _0359_
*379 _0360_
*380 _0361_
*381 _0362_
*382 _0363_
*383 _0364_
*384 _0365_
*385 _0366_
*386 _0367_
*387 _0368_
*388 _0369_
*389 _0370_
*390 _0371_
*391 _0372_
*392 _0373_
*393 _0374_
*394 _0375_
*395 _0376_
*396 _0377_
*397 _0378_
*398 _0379_
*399 _0380_
*400 _0381_
*401 _0382_
*402 _0383_
*403 _0384_
*404 _0385_
*405 _0386_
*406 _0387_
*407 _0388_
*408 _0389_
*409 _0390_
*410 _0391_
*411 _0392_
*412 _0393_
*413 _0394_
*414 _0395_
*415 _0396_
*416 _0397_
*417 _0398_
*418 _0399_
*419 _0400_
*420 _0401_
*421 _0402_
*422 _0403_
*423 _0404_
*424 _0405_
*425 _0406_
*426 _0407_
*427 _0408_
*428 _0409_
*429 _0410_
*430 _0411_
*431 _0412_
*432 _0413_
*433 _0414_
*434 _0415_
*435 _0416_
*436 _0417_
*437 _0418_
*438 _0419_
*439 _0420_
*440 _0421_
*441 _0422_
*442 _0423_
*443 _0424_
*444 _0425_
*445 _0426_
*446 _0427_
*447 _0428_
*448 _0429_
*449 _0430_
*450 _0431_
*451 _0432_
*452 _0433_
*453 _0434_
*454 _0435_
*455 _0436_
*456 _0437_
*457 _0438_
*458 _0439_
*459 _0440_
*460 _0441_
*461 _0442_
*462 _0443_
*463 _0444_
*464 _0445_
*465 _0446_
*466 _0447_
*467 _0448_
*468 _0449_
*469 _0450_
*470 _0451_
*471 _0452_
*472 _0453_
*473 _0454_
*474 _0455_
*475 _0456_
*476 _0457_
*477 _0458_
*478 _0459_
*479 _0460_
*480 _0461_
*481 _0462_
*482 _0463_
*483 _0464_
*484 _0465_
*485 _0466_
*486 _0467_
*487 _0468_
*488 _0469_
*489 _0470_
*490 _0471_
*491 _0472_
*492 _0473_
*493 _0474_
*494 _0475_
*495 _0476_
*496 _0477_
*497 _0478_
*498 _0479_
*499 _0480_
*500 _0481_
*501 _0482_
*502 _0483_
*503 _0484_
*504 _0485_
*505 _0486_
*506 _0487_
*507 _0488_
*508 _0489_
*509 _0490_
*510 _0491_
*511 _0492_
*512 _0493_
*513 _0494_
*514 _0495_
*515 _0496_
*516 _0497_
*517 _0498_
*518 _0499_
*519 _0500_
*520 _0501_
*521 _0502_
*522 _0503_
*523 _0504_
*524 _0505_
*525 _0506_
*526 _0507_
*527 _0508_
*528 _0509_
*529 _0510_
*530 _0511_
*531 _0512_
*532 _0513_
*533 _0514_
*534 _0515_
*535 _0516_
*536 _0517_
*537 _0518_
*538 _0519_
*539 _0520_
*540 _0521_
*541 _0522_
*542 _0523_
*543 _0524_
*544 _0525_
*545 _0526_
*546 _0527_
*547 _0528_
*548 _0529_
*549 _0530_
*550 _0531_
*551 _0532_
*552 _0533_
*553 _0534_
*554 _0535_
*555 _0536_
*556 _0537_
*557 _0538_
*558 _0539_
*559 _0540_
*560 _0541_
*561 _0542_
*562 _0543_
*563 _0544_
*564 _0545_
*565 _0546_
*566 _0547_
*567 _0548_
*568 _0549_
*569 _0550_
*570 _0551_
*571 _0552_
*572 _0553_
*573 _0554_
*574 _0555_
*575 _0556_
*576 _0557_
*577 _0558_
*578 _0559_
*579 _0560_
*580 _0561_
*581 _0562_
*582 _0563_
*583 _0564_
*584 _0565_
*585 _0566_
*586 _0567_
*587 _0568_
*588 _0569_
*589 _0570_
*590 _0571_
*591 _0572_
*592 _0573_
*593 _0574_
*594 _0575_
*595 clknet_0__0160_
*596 clknet_0__0547_
*597 clknet_1_0__leaf__0547_
*598 clknet_1_1__leaf__0547_
*599 clknet_4_0_0__0160_
*600 clknet_4_10_0__0160_
*601 clknet_4_11_0__0160_
*602 clknet_4_12_0__0160_
*603 clknet_4_13_0__0160_
*604 clknet_4_14_0__0160_
*605 clknet_4_15_0__0160_
*606 clknet_4_1_0__0160_
*607 clknet_4_2_0__0160_
*608 clknet_4_3_0__0160_
*609 clknet_4_4_0__0160_
*610 clknet_4_5_0__0160_
*611 clknet_4_6_0__0160_
*612 clknet_4_7_0__0160_
*613 clknet_4_8_0__0160_
*614 clknet_4_9_0__0160_
*615 cont\.count\[0\]
*616 cont\.count\[10\]
*617 cont\.count\[11\]
*618 cont\.count\[12\]
*619 cont\.count\[13\]
*620 cont\.count\[14\]
*621 cont\.count\[15\]
*622 cont\.count\[1\]
*623 cont\.count\[2\]
*624 cont\.count\[3\]
*625 cont\.count\[4\]
*626 cont\.count\[5\]
*627 cont\.count\[6\]
*628 cont\.count\[7\]
*629 cont\.count\[8\]
*630 cont\.count\[9\]
*631 cont\.osc_clk
*632 controller\.rx_data\[0\]
*633 controller\.rx_data\[1\]
*634 controller\.rx_data\[2\]
*635 controller\.rx_data\[3\]
*636 controller\.rx_data\[4\]
*637 controller\.rx_data\[5\]
*638 controller\.rx_data\[6\]
*639 controller\.rx_data\[7\]
*640 controller\.rx_ready
*641 controller\.state\[0\]
*642 controller\.state\[1\]
*643 controller\.state\[2\]
*644 controller\.state\[3\]
*645 controller\.sum_ready
*646 controller\.timer\[0\]
*647 controller\.timer\[10\]
*648 controller\.timer\[11\]
*649 controller\.timer\[12\]
*650 controller\.timer\[13\]
*651 controller\.timer\[14\]
*652 controller\.timer\[15\]
*653 controller\.timer\[1\]
*654 controller\.timer\[2\]
*655 controller\.timer\[3\]
*656 controller\.timer\[4\]
*657 controller\.timer\[5\]
*658 controller\.timer\[6\]
*659 controller\.timer\[7\]
*660 controller\.timer\[8\]
*661 controller\.timer\[9\]
*662 m2\.a
*663 m2\.b
*664 net1
*665 net10
*666 net100
*667 net101
*668 net102
*669 net103
*670 net104
*671 net105
*672 net106
*673 net107
*674 net108
*675 net109
*676 net11
*677 net110
*678 net111
*679 net112
*680 net113
*681 net114
*682 net115
*683 net116
*684 net117
*685 net118
*686 net119
*687 net12
*688 net120
*689 net121
*690 net122
*691 net123
*692 net124
*693 net125
*694 net126
*695 net127
*696 net128
*697 net129
*698 net13
*699 net130
*700 net131
*701 net132
*702 net133
*703 net134
*704 net135
*705 net136
*706 net137
*707 net138
*708 net139
*709 net14
*710 net140
*711 net141
*712 net142
*713 net143
*714 net144
*715 net145
*716 net146
*717 net147
*718 net148
*719 net149
*720 net15
*721 net150
*722 net151
*723 net152
*724 net16
*725 net17
*726 net18
*727 net19
*728 net2
*729 net20
*730 net21
*731 net22
*732 net23
*733 net24
*734 net25
*735 net26
*736 net27
*737 net28
*738 net29
*739 net3
*740 net30
*741 net31
*742 net32
*743 net33
*744 net34
*745 net35
*746 net36
*747 net37
*748 net38
*749 net39
*750 net4
*751 net40
*752 net41
*753 net42
*754 net43
*755 net44
*756 net45
*757 net46
*758 net47
*759 net48
*760 net49
*761 net5
*762 net50
*763 net51
*764 net52
*765 net53
*766 net54
*767 net55
*768 net56
*769 net57
*770 net58
*771 net59
*772 net6
*773 net60
*774 net61
*775 net62
*776 net63
*777 net64
*778 net65
*779 net66
*780 net67
*781 net68
*782 net69
*783 net7
*784 net70
*785 net71
*786 net72
*787 net73
*788 net74
*789 net75
*790 net76
*791 net77
*792 net78
*793 net79
*794 net8
*795 net80
*796 net81
*797 net82
*798 net83
*799 net84
*800 net85
*801 net86
*802 net87
*803 net88
*804 net89
*805 net9
*806 net90
*807 net91
*808 net92
*809 net93
*810 net94
*811 net95
*812 net96
*813 net97
*814 net98
*815 net99
*816 osc1\.aux_wire\[0\]
*817 osc1\.aux_wire\[10\]
*818 osc1\.aux_wire\[11\]
*819 osc1\.aux_wire\[12\]
*820 osc1\.aux_wire\[13\]
*821 osc1\.aux_wire\[14\]
*822 osc1\.aux_wire\[15\]
*823 osc1\.aux_wire\[16\]
*824 osc1\.aux_wire\[17\]
*825 osc1\.aux_wire\[18\]
*826 osc1\.aux_wire\[19\]
*827 osc1\.aux_wire\[1\]
*828 osc1\.aux_wire\[20\]
*829 osc1\.aux_wire\[21\]
*830 osc1\.aux_wire\[22\]
*831 osc1\.aux_wire\[23\]
*832 osc1\.aux_wire\[24\]
*833 osc1\.aux_wire\[25\]
*834 osc1\.aux_wire\[26\]
*835 osc1\.aux_wire\[27\]
*836 osc1\.aux_wire\[28\]
*837 osc1\.aux_wire\[29\]
*838 osc1\.aux_wire\[2\]
*839 osc1\.aux_wire\[30\]
*840 osc1\.aux_wire\[31\]
*841 osc1\.aux_wire\[32\]
*842 osc1\.aux_wire\[33\]
*843 osc1\.aux_wire\[34\]
*844 osc1\.aux_wire\[35\]
*845 osc1\.aux_wire\[36\]
*846 osc1\.aux_wire\[37\]
*847 osc1\.aux_wire\[38\]
*848 osc1\.aux_wire\[39\]
*849 osc1\.aux_wire\[3\]
*850 osc1\.aux_wire\[40\]
*851 osc1\.aux_wire\[41\]
*852 osc1\.aux_wire\[42\]
*853 osc1\.aux_wire\[43\]
*854 osc1\.aux_wire\[44\]
*855 osc1\.aux_wire\[45\]
*856 osc1\.aux_wire\[46\]
*857 osc1\.aux_wire\[47\]
*858 osc1\.aux_wire\[48\]
*859 osc1\.aux_wire\[49\]
*860 osc1\.aux_wire\[4\]
*861 osc1\.aux_wire\[50\]
*862 osc1\.aux_wire\[51\]
*863 osc1\.aux_wire\[52\]
*864 osc1\.aux_wire\[53\]
*865 osc1\.aux_wire\[54\]
*866 osc1\.aux_wire\[55\]
*867 osc1\.aux_wire\[56\]
*868 osc1\.aux_wire\[57\]
*869 osc1\.aux_wire\[58\]
*870 osc1\.aux_wire\[59\]
*871 osc1\.aux_wire\[5\]
*872 osc1\.aux_wire\[60\]
*873 osc1\.aux_wire\[61\]
*874 osc1\.aux_wire\[62\]
*875 osc1\.aux_wire\[63\]
*876 osc1\.aux_wire\[64\]
*877 osc1\.aux_wire\[65\]
*878 osc1\.aux_wire\[66\]
*879 osc1\.aux_wire\[67\]
*880 osc1\.aux_wire\[68\]
*881 osc1\.aux_wire\[69\]
*882 osc1\.aux_wire\[6\]
*883 osc1\.aux_wire\[70\]
*884 osc1\.aux_wire\[71\]
*885 osc1\.aux_wire\[72\]
*886 osc1\.aux_wire\[73\]
*887 osc1\.aux_wire\[74\]
*888 osc1\.aux_wire\[75\]
*889 osc1\.aux_wire\[76\]
*890 osc1\.aux_wire\[77\]
*891 osc1\.aux_wire\[78\]
*892 osc1\.aux_wire\[79\]
*893 osc1\.aux_wire\[7\]
*894 osc1\.aux_wire\[80\]
*895 osc1\.aux_wire\[81\]
*896 osc1\.aux_wire\[82\]
*897 osc1\.aux_wire\[83\]
*898 osc1\.aux_wire\[84\]
*899 osc1\.aux_wire\[85\]
*900 osc1\.aux_wire\[86\]
*901 osc1\.aux_wire\[87\]
*902 osc1\.aux_wire\[88\]
*903 osc1\.aux_wire\[89\]
*904 osc1\.aux_wire\[8\]
*905 osc1\.aux_wire\[90\]
*906 osc1\.aux_wire\[91\]
*907 osc1\.aux_wire\[92\]
*908 osc1\.aux_wire\[93\]
*909 osc1\.aux_wire\[94\]
*910 osc1\.aux_wire\[95\]
*911 osc1\.aux_wire\[96\]
*912 osc1\.aux_wire\[97\]
*913 osc1\.aux_wire\[98\]
*914 osc1\.aux_wire\[9\]
*915 osc2\.aux_wire\[0\]
*916 osc2\.aux_wire\[10\]
*917 osc2\.aux_wire\[11\]
*918 osc2\.aux_wire\[12\]
*919 osc2\.aux_wire\[13\]
*920 osc2\.aux_wire\[14\]
*921 osc2\.aux_wire\[15\]
*922 osc2\.aux_wire\[16\]
*923 osc2\.aux_wire\[17\]
*924 osc2\.aux_wire\[18\]
*925 osc2\.aux_wire\[19\]
*926 osc2\.aux_wire\[1\]
*927 osc2\.aux_wire\[20\]
*928 osc2\.aux_wire\[21\]
*929 osc2\.aux_wire\[22\]
*930 osc2\.aux_wire\[23\]
*931 osc2\.aux_wire\[24\]
*932 osc2\.aux_wire\[25\]
*933 osc2\.aux_wire\[26\]
*934 osc2\.aux_wire\[27\]
*935 osc2\.aux_wire\[28\]
*936 osc2\.aux_wire\[29\]
*937 osc2\.aux_wire\[2\]
*938 osc2\.aux_wire\[30\]
*939 osc2\.aux_wire\[31\]
*940 osc2\.aux_wire\[32\]
*941 osc2\.aux_wire\[3\]
*942 osc2\.aux_wire\[4\]
*943 osc2\.aux_wire\[5\]
*944 osc2\.aux_wire\[6\]
*945 osc2\.aux_wire\[7\]
*946 osc2\.aux_wire\[8\]
*947 osc2\.aux_wire\[9\]
*948 prom\.contador\[0\]
*949 prom\.contador\[10\]
*950 prom\.contador\[11\]
*951 prom\.contador\[12\]
*952 prom\.contador\[13\]
*953 prom\.contador\[14\]
*954 prom\.contador\[15\]
*955 prom\.contador\[1\]
*956 prom\.contador\[2\]
*957 prom\.contador\[3\]
*958 prom\.contador\[4\]
*959 prom\.contador\[5\]
*960 prom\.contador\[6\]
*961 prom\.contador\[7\]
*962 prom\.contador\[8\]
*963 prom\.contador\[9\]
*964 prom\.out\[0\]
*965 prom\.out\[10\]
*966 prom\.out\[11\]
*967 prom\.out\[12\]
*968 prom\.out\[13\]
*969 prom\.out\[14\]
*970 prom\.out\[15\]
*971 prom\.out\[1\]
*972 prom\.out\[2\]
*973 prom\.out\[3\]
*974 prom\.out\[4\]
*975 prom\.out\[5\]
*976 prom\.out\[6\]
*977 prom\.out\[7\]
*978 prom\.out\[8\]
*979 prom\.out\[9\]
*980 prom\.promedio\[0\]
*981 prom\.promedio\[10\]
*982 prom\.promedio\[11\]
*983 prom\.promedio\[12\]
*984 prom\.promedio\[13\]
*985 prom\.promedio\[14\]
*986 prom\.promedio\[15\]
*987 prom\.promedio\[1\]
*988 prom\.promedio\[2\]
*989 prom\.promedio\[3\]
*990 prom\.promedio\[4\]
*991 prom\.promedio\[5\]
*992 prom\.promedio\[6\]
*993 prom\.promedio\[7\]
*994 prom\.promedio\[8\]
*995 prom\.promedio\[9\]
*996 uart\.baud8_tick_blk\.acc\[0\]
*997 uart\.baud8_tick_blk\.acc\[10\]
*998 uart\.baud8_tick_blk\.acc\[11\]
*999 uart\.baud8_tick_blk\.acc\[12\]
*1000 uart\.baud8_tick_blk\.acc\[1\]
*1001 uart\.baud8_tick_blk\.acc\[2\]
*1002 uart\.baud8_tick_blk\.acc\[3\]
*1003 uart\.baud8_tick_blk\.acc\[4\]
*1004 uart\.baud8_tick_blk\.acc\[5\]
*1005 uart\.baud8_tick_blk\.acc\[6\]
*1006 uart\.baud8_tick_blk\.acc\[7\]
*1007 uart\.baud8_tick_blk\.acc\[8\]
*1008 uart\.baud8_tick_blk\.acc\[9\]
*1009 uart\.baud_tick_blk\.acc\[10\]
*1010 uart\.baud_tick_blk\.acc\[11\]
*1011 uart\.baud_tick_blk\.acc\[12\]
*1012 uart\.baud_tick_blk\.acc\[1\]
*1013 uart\.baud_tick_blk\.acc\[2\]
*1014 uart\.baud_tick_blk\.acc\[3\]
*1015 uart\.baud_tick_blk\.acc\[4\]
*1016 uart\.baud_tick_blk\.acc\[5\]
*1017 uart\.baud_tick_blk\.acc\[6\]
*1018 uart\.baud_tick_blk\.acc\[7\]
*1019 uart\.baud_tick_blk\.acc\[8\]
*1020 uart\.baud_tick_blk\.acc\[9\]
*1021 uart\.rx_ready_pre
*1022 uart\.rx_ready_sync
*1023 uart\.tx
*1024 uart\.uart_rx_blk\.bit_counter\[0\]
*1025 uart\.uart_rx_blk\.bit_counter\[1\]
*1026 uart\.uart_rx_blk\.bit_counter\[2\]
*1027 uart\.uart_rx_blk\.rx_bit
*1028 uart\.uart_rx_blk\.rx_sync_inst\.in_sync
*1029 uart\.uart_rx_blk\.rx_sync_inst\.in_sync_sr\[1\]
*1030 uart\.uart_rx_blk\.rx_sync_inst\.sync_counter\[0\]
*1031 uart\.uart_rx_blk\.rx_sync_inst\.sync_counter\[1\]
*1032 uart\.uart_rx_blk\.spacing_counter\[0\]
*1033 uart\.uart_rx_blk\.spacing_counter\[1\]
*1034 uart\.uart_rx_blk\.spacing_counter\[2\]
*1035 uart\.uart_rx_blk\.state\[0\]
*1036 uart\.uart_rx_blk\.state\[1\]
*1037 uart\.uart_rx_blk\.state\[2\]
*1038 uart\.uart_tx_blk\.counter\[0\]
*1039 uart\.uart_tx_blk\.counter\[1\]
*1040 uart\.uart_tx_blk\.counter\[2\]
*1041 uart\.uart_tx_blk\.state\[0\]
*1042 uart\.uart_tx_blk\.state\[1\]
*1043 uart\.uart_tx_blk\.tx_data_reg\[0\]
*1044 uart\.uart_tx_blk\.tx_data_reg\[1\]
*1045 uart\.uart_tx_blk\.tx_data_reg\[2\]
*1046 uart\.uart_tx_blk\.tx_data_reg\[3\]
*1047 uart\.uart_tx_blk\.tx_data_reg\[4\]
*1048 uart\.uart_tx_blk\.tx_data_reg\[5\]
*1049 uart\.uart_tx_blk\.tx_data_reg\[6\]
*1050 uart\.uart_tx_blk\.tx_data_reg\[7\]
*1051 ANTENNA_1
*1052 ANTENNA_10
*1053 ANTENNA_11
*1054 ANTENNA_12
*1055 ANTENNA_13
*1056 ANTENNA_14
*1057 ANTENNA_15
*1058 ANTENNA_16
*1059 ANTENNA_17
*1060 ANTENNA_18
*1061 ANTENNA_19
*1062 ANTENNA_2
*1063 ANTENNA_20
*1064 ANTENNA_21
*1065 ANTENNA_22
*1066 ANTENNA_23
*1067 ANTENNA_24
*1068 ANTENNA_25
*1069 ANTENNA_26
*1070 ANTENNA_27
*1071 ANTENNA_28
*1072 ANTENNA_29
*1073 ANTENNA_3
*1074 ANTENNA_30
*1075 ANTENNA_31
*1076 ANTENNA_32
*1077 ANTENNA_33
*1078 ANTENNA_34
*1079 ANTENNA_35
*1080 ANTENNA_36
*1081 ANTENNA_37
*1082 ANTENNA_38
*1083 ANTENNA_39
*1084 ANTENNA_4
*1085 ANTENNA_40
*1086 ANTENNA_41
*1087 ANTENNA_42
*1088 ANTENNA_43
*1089 ANTENNA_44
*1090 ANTENNA_45
*1091 ANTENNA_46
*1092 ANTENNA_47
*1093 ANTENNA_48
*1094 ANTENNA_49
*1095 ANTENNA_5
*1096 ANTENNA_50
*1097 ANTENNA_51
*1098 ANTENNA_52
*1099 ANTENNA_53
*1100 ANTENNA_54
*1101 ANTENNA_55
*1102 ANTENNA_56
*1103 ANTENNA_57
*1104 ANTENNA_58
*1105 ANTENNA_59
*1106 ANTENNA_6
*1107 ANTENNA_60
*1108 ANTENNA_61
*1109 ANTENNA_62
*1110 ANTENNA_63
*1111 ANTENNA_64
*1112 ANTENNA_65
*1113 ANTENNA_66
*1114 ANTENNA_67
*1115 ANTENNA_68
*1116 ANTENNA_69
*1117 ANTENNA_7
*1118 ANTENNA_70
*1119 ANTENNA_8
*1120 ANTENNA_9
*1121 FILLER_0_104
*1122 FILLER_0_108
*1123 FILLER_0_116
*1124 FILLER_0_120
*1125 FILLER_0_138
*1126 FILLER_0_144
*1127 FILLER_0_148
*1128 FILLER_0_166
*1129 FILLER_0_169
*1130 FILLER_0_187
*1131 FILLER_0_194
*1132 FILLER_0_197
*1133 FILLER_0_216
*1134 FILLER_0_225
*1135 FILLER_0_250
*1136 FILLER_0_253
*1137 FILLER_0_26
*1138 FILLER_0_272
*1139 FILLER_0_281
*1140 FILLER_0_287
*1141 FILLER_0_29
*1142 FILLER_0_294
*1143 FILLER_0_298
*1144 FILLER_0_3
*1145 FILLER_0_48
*1146 FILLER_0_57
*1147 FILLER_0_7
*1148 FILLER_0_76
*1149 FILLER_0_80
*1150 FILLER_0_85
*1151 FILLER_10_112
*1152 FILLER_10_133
*1153 FILLER_10_139
*1154 FILLER_10_141
*1155 FILLER_10_160
*1156 FILLER_10_175
*1157 FILLER_10_179
*1158 FILLER_10_187
*1159 FILLER_10_194
*1160 FILLER_10_197
*1161 FILLER_10_205
*1162 FILLER_10_213
*1163 FILLER_10_220
*1164 FILLER_10_227
*1165 FILLER_10_234
*1166 FILLER_10_241
*1167 FILLER_10_248
*1168 FILLER_10_253
*1169 FILLER_10_258
*1170 FILLER_10_26
*1171 FILLER_10_265
*1172 FILLER_10_272
*1173 FILLER_10_29
*1174 FILLER_10_297
*1175 FILLER_10_3
*1176 FILLER_10_33
*1177 FILLER_10_39
*1178 FILLER_10_60
*1179 FILLER_10_82
*1180 FILLER_10_85
*1181 FILLER_10_92
*1182 FILLER_11_108
*1183 FILLER_11_113
*1184 FILLER_11_122
*1185 FILLER_11_128
*1186 FILLER_11_145
*1187 FILLER_11_15
*1188 FILLER_11_166
*1189 FILLER_11_169
*1190 FILLER_11_182
*1191 FILLER_11_189
*1192 FILLER_11_196
*1193 FILLER_11_204
*1194 FILLER_11_212
*1195 FILLER_11_219
*1196 FILLER_11_223
*1197 FILLER_11_225
*1198 FILLER_11_230
*1199 FILLER_11_237
*1200 FILLER_11_244
*1201 FILLER_11_251
*1202 FILLER_11_258
*1203 FILLER_11_265
*1204 FILLER_11_272
*1205 FILLER_11_281
*1206 FILLER_11_287
*1207 FILLER_11_295
*1208 FILLER_11_3
*1209 FILLER_11_38
*1210 FILLER_11_42
*1211 FILLER_11_54
*1212 FILLER_11_57
*1213 FILLER_11_75
*1214 FILLER_11_96
*1215 FILLER_12_118
*1216 FILLER_12_138
*1217 FILLER_12_141
*1218 FILLER_12_147
*1219 FILLER_12_170
*1220 FILLER_12_181
*1221 FILLER_12_190
*1222 FILLER_12_197
*1223 FILLER_12_212
*1224 FILLER_12_221
*1225 FILLER_12_228
*1226 FILLER_12_235
*1227 FILLER_12_243
*1228 FILLER_12_247
*1229 FILLER_12_251
*1230 FILLER_12_253
*1231 FILLER_12_258
*1232 FILLER_12_26
*1233 FILLER_12_265
*1234 FILLER_12_272
*1235 FILLER_12_279
*1236 FILLER_12_291
*1237 FILLER_12_3
*1238 FILLER_12_34
*1239 FILLER_12_38
*1240 FILLER_12_57
*1241 FILLER_12_78
*1242 FILLER_12_85
*1243 FILLER_12_93
*1244 FILLER_12_97
*1245 FILLER_13_10
*1246 FILLER_13_110
*1247 FILLER_13_113
*1248 FILLER_13_118
*1249 FILLER_13_124
*1250 FILLER_13_14
*1251 FILLER_13_141
*1252 FILLER_13_166
*1253 FILLER_13_169
*1254 FILLER_13_174
*1255 FILLER_13_181
*1256 FILLER_13_188
*1257 FILLER_13_195
*1258 FILLER_13_206
*1259 FILLER_13_213
*1260 FILLER_13_220
*1261 FILLER_13_225
*1262 FILLER_13_231
*1263 FILLER_13_238
*1264 FILLER_13_246
*1265 FILLER_13_251
*1266 FILLER_13_258
*1267 FILLER_13_262
*1268 FILLER_13_268
*1269 FILLER_13_274
*1270 FILLER_13_278
*1271 FILLER_13_281
*1272 FILLER_13_286
*1273 FILLER_13_290
*1274 FILLER_13_294
*1275 FILLER_13_298
*1276 FILLER_13_33
*1277 FILLER_13_54
*1278 FILLER_13_57
*1279 FILLER_13_70
*1280 FILLER_13_90
*1281 FILLER_14_106
*1282 FILLER_14_127
*1283 FILLER_14_134
*1284 FILLER_14_141
*1285 FILLER_14_146
*1286 FILLER_14_153
*1287 FILLER_14_174
*1288 FILLER_14_182
*1289 FILLER_14_187
*1290 FILLER_14_194
*1291 FILLER_14_197
*1292 FILLER_14_202
*1293 FILLER_14_209
*1294 FILLER_14_216
*1295 FILLER_14_223
*1296 FILLER_14_230
*1297 FILLER_14_237
*1298 FILLER_14_244
*1299 FILLER_14_253
*1300 FILLER_14_26
*1301 FILLER_14_265
*1302 FILLER_14_271
*1303 FILLER_14_275
*1304 FILLER_14_285
*1305 FILLER_14_29
*1306 FILLER_14_294
*1307 FILLER_14_298
*1308 FILLER_14_3
*1309 FILLER_14_40
*1310 FILLER_14_60
*1311 FILLER_14_80
*1312 FILLER_14_85
*1313 FILLER_14_89
*1314 FILLER_15_10
*1315 FILLER_15_104
*1316 FILLER_15_113
*1317 FILLER_15_132
*1318 FILLER_15_139
*1319 FILLER_15_14
*1320 FILLER_15_146
*1321 FILLER_15_154
*1322 FILLER_15_166
*1323 FILLER_15_169
*1324 FILLER_15_183
*1325 FILLER_15_187
*1326 FILLER_15_191
*1327 FILLER_15_198
*1328 FILLER_15_205
*1329 FILLER_15_214
*1330 FILLER_15_221
*1331 FILLER_15_225
*1332 FILLER_15_230
*1333 FILLER_15_237
*1334 FILLER_15_249
*1335 FILLER_15_261
*1336 FILLER_15_273
*1337 FILLER_15_279
*1338 FILLER_15_281
*1339 FILLER_15_287
*1340 FILLER_15_294
*1341 FILLER_15_298
*1342 FILLER_15_3
*1343 FILLER_15_33
*1344 FILLER_15_54
*1345 FILLER_15_60
*1346 FILLER_15_64
*1347 FILLER_15_7
*1348 FILLER_15_82
*1349 FILLER_15_86
*1350 FILLER_16_119
*1351 FILLER_16_134
*1352 FILLER_16_141
*1353 FILLER_16_146
*1354 FILLER_16_162
*1355 FILLER_16_169
*1356 FILLER_16_176
*1357 FILLER_16_183
*1358 FILLER_16_192
*1359 FILLER_16_197
*1360 FILLER_16_202
*1361 FILLER_16_209
*1362 FILLER_16_216
*1363 FILLER_16_225
*1364 FILLER_16_232
*1365 FILLER_16_244
*1366 FILLER_16_253
*1367 FILLER_16_26
*1368 FILLER_16_261
*1369 FILLER_16_273
*1370 FILLER_16_285
*1371 FILLER_16_29
*1372 FILLER_16_294
*1373 FILLER_16_298
*1374 FILLER_16_47
*1375 FILLER_16_70
*1376 FILLER_16_78
*1377 FILLER_16_85
*1378 FILLER_16_91
*1379 FILLER_16_95
*1380 FILLER_17_106
*1381 FILLER_17_113
*1382 FILLER_17_118
*1383 FILLER_17_12
*1384 FILLER_17_125
*1385 FILLER_17_147
*1386 FILLER_17_154
*1387 FILLER_17_16
*1388 FILLER_17_161
*1389 FILLER_17_167
*1390 FILLER_17_169
*1391 FILLER_17_174
*1392 FILLER_17_186
*1393 FILLER_17_195
*1394 FILLER_17_202
*1395 FILLER_17_209
*1396 FILLER_17_216
*1397 FILLER_17_225
*1398 FILLER_17_237
*1399 FILLER_17_249
*1400 FILLER_17_257
*1401 FILLER_17_268
*1402 FILLER_17_281
*1403 FILLER_17_289
*1404 FILLER_17_294
*1405 FILLER_17_298
*1406 FILLER_17_3
*1407 FILLER_17_35
*1408 FILLER_17_50
*1409 FILLER_17_57
*1410 FILLER_17_7
*1411 FILLER_17_78
*1412 FILLER_17_85
*1413 FILLER_18_118
*1414 FILLER_18_138
*1415 FILLER_18_141
*1416 FILLER_18_146
*1417 FILLER_18_169
*1418 FILLER_18_189
*1419 FILLER_18_195
*1420 FILLER_18_197
*1421 FILLER_18_202
*1422 FILLER_18_215
*1423 FILLER_18_227
*1424 FILLER_18_239
*1425 FILLER_18_245
*1426 FILLER_18_250
*1427 FILLER_18_253
*1428 FILLER_18_26
*1429 FILLER_18_265
*1430 FILLER_18_273
*1431 FILLER_18_277
*1432 FILLER_18_289
*1433 FILLER_18_29
*1434 FILLER_18_296
*1435 FILLER_18_3
*1436 FILLER_18_51
*1437 FILLER_18_71
*1438 FILLER_18_82
*1439 FILLER_18_85
*1440 FILLER_18_9
*1441 FILLER_18_98
*1442 FILLER_19_103
*1443 FILLER_19_110
*1444 FILLER_19_113
*1445 FILLER_19_12
*1446 FILLER_19_131
*1447 FILLER_19_155
*1448 FILLER_19_162
*1449 FILLER_19_169
*1450 FILLER_19_173
*1451 FILLER_19_177
*1452 FILLER_19_181
*1453 FILLER_19_187
*1454 FILLER_19_194
*1455 FILLER_19_201
*1456 FILLER_19_213
*1457 FILLER_19_221
*1458 FILLER_19_225
*1459 FILLER_19_237
*1460 FILLER_19_249
*1461 FILLER_19_261
*1462 FILLER_19_273
*1463 FILLER_19_279
*1464 FILLER_19_281
*1465 FILLER_19_290
*1466 FILLER_19_298
*1467 FILLER_19_3
*1468 FILLER_19_33
*1469 FILLER_19_53
*1470 FILLER_19_57
*1471 FILLER_19_81
*1472 FILLER_1_110
*1473 FILLER_1_113
*1474 FILLER_1_132
*1475 FILLER_1_142
*1476 FILLER_1_146
*1477 FILLER_1_165
*1478 FILLER_1_169
*1479 FILLER_1_188
*1480 FILLER_1_209
*1481 FILLER_1_217
*1482 FILLER_1_223
*1483 FILLER_1_225
*1484 FILLER_1_246
*1485 FILLER_1_25
*1486 FILLER_1_267
*1487 FILLER_1_276
*1488 FILLER_1_281
*1489 FILLER_1_288
*1490 FILLER_1_29
*1491 FILLER_1_296
*1492 FILLER_1_3
*1493 FILLER_1_50
*1494 FILLER_1_57
*1495 FILLER_1_7
*1496 FILLER_1_78
*1497 FILLER_1_99
*1498 FILLER_20_103
*1499 FILLER_20_123
*1500 FILLER_20_138
*1501 FILLER_20_141
*1502 FILLER_20_145
*1503 FILLER_20_149
*1504 FILLER_20_169
*1505 FILLER_20_176
*1506 FILLER_20_183
*1507 FILLER_20_190
*1508 FILLER_20_197
*1509 FILLER_20_204
*1510 FILLER_20_216
*1511 FILLER_20_220
*1512 FILLER_20_230
*1513 FILLER_20_242
*1514 FILLER_20_250
*1515 FILLER_20_253
*1516 FILLER_20_26
*1517 FILLER_20_265
*1518 FILLER_20_277
*1519 FILLER_20_285
*1520 FILLER_20_29
*1521 FILLER_20_293
*1522 FILLER_20_3
*1523 FILLER_20_47
*1524 FILLER_20_51
*1525 FILLER_20_70
*1526 FILLER_20_78
*1527 FILLER_20_82
*1528 FILLER_20_85
*1529 FILLER_20_9
*1530 FILLER_21_109
*1531 FILLER_21_11
*1532 FILLER_21_113
*1533 FILLER_21_118
*1534 FILLER_21_125
*1535 FILLER_21_145
*1536 FILLER_21_149
*1537 FILLER_21_15
*1538 FILLER_21_166
*1539 FILLER_21_169
*1540 FILLER_21_182
*1541 FILLER_21_194
*1542 FILLER_21_206
*1543 FILLER_21_218
*1544 FILLER_21_225
*1545 FILLER_21_237
*1546 FILLER_21_249
*1547 FILLER_21_259
*1548 FILLER_21_265
*1549 FILLER_21_275
*1550 FILLER_21_279
*1551 FILLER_21_281
*1552 FILLER_21_288
*1553 FILLER_21_296
*1554 FILLER_21_3
*1555 FILLER_21_33
*1556 FILLER_21_54
*1557 FILLER_21_57
*1558 FILLER_21_69
*1559 FILLER_21_77
*1560 FILLER_21_82
*1561 FILLER_21_89
*1562 FILLER_22_100
*1563 FILLER_22_118
*1564 FILLER_22_133
*1565 FILLER_22_139
*1566 FILLER_22_141
*1567 FILLER_22_154
*1568 FILLER_22_174
*1569 FILLER_22_181
*1570 FILLER_22_193
*1571 FILLER_22_197
*1572 FILLER_22_209
*1573 FILLER_22_221
*1574 FILLER_22_233
*1575 FILLER_22_245
*1576 FILLER_22_251
*1577 FILLER_22_253
*1578 FILLER_22_26
*1579 FILLER_22_265
*1580 FILLER_22_277
*1581 FILLER_22_285
*1582 FILLER_22_29
*1583 FILLER_22_294
*1584 FILLER_22_298
*1585 FILLER_22_3
*1586 FILLER_22_35
*1587 FILLER_22_50
*1588 FILLER_22_61
*1589 FILLER_22_82
*1590 FILLER_22_85
*1591 FILLER_22_9
*1592 FILLER_22_90
*1593 FILLER_22_96
*1594 FILLER_23_106
*1595 FILLER_23_113
*1596 FILLER_23_131
*1597 FILLER_23_142
*1598 FILLER_23_15
*1599 FILLER_23_162
*1600 FILLER_23_169
*1601 FILLER_23_176
*1602 FILLER_23_188
*1603 FILLER_23_196
*1604 FILLER_23_203
*1605 FILLER_23_21
*1606 FILLER_23_215
*1607 FILLER_23_223
*1608 FILLER_23_225
*1609 FILLER_23_233
*1610 FILLER_23_243
*1611 FILLER_23_255
*1612 FILLER_23_267
*1613 FILLER_23_279
*1614 FILLER_23_281
*1615 FILLER_23_293
*1616 FILLER_23_3
*1617 FILLER_23_38
*1618 FILLER_23_47
*1619 FILLER_23_54
*1620 FILLER_23_57
*1621 FILLER_23_64
*1622 FILLER_23_71
*1623 FILLER_23_79
*1624 FILLER_23_92
*1625 FILLER_23_99
*1626 FILLER_24_10
*1627 FILLER_24_105
*1628 FILLER_24_113
*1629 FILLER_24_118
*1630 FILLER_24_138
*1631 FILLER_24_14
*1632 FILLER_24_141
*1633 FILLER_24_159
*1634 FILLER_24_166
*1635 FILLER_24_178
*1636 FILLER_24_19
*1637 FILLER_24_190
*1638 FILLER_24_197
*1639 FILLER_24_208
*1640 FILLER_24_220
*1641 FILLER_24_232
*1642 FILLER_24_244
*1643 FILLER_24_253
*1644 FILLER_24_26
*1645 FILLER_24_265
*1646 FILLER_24_277
*1647 FILLER_24_283
*1648 FILLER_24_29
*1649 FILLER_24_291
*1650 FILLER_24_3
*1651 FILLER_24_47
*1652 FILLER_24_55
*1653 FILLER_24_59
*1654 FILLER_24_68
*1655 FILLER_24_75
*1656 FILLER_24_82
*1657 FILLER_24_85
*1658 FILLER_25_100
*1659 FILLER_25_109
*1660 FILLER_25_113
*1661 FILLER_25_119
*1662 FILLER_25_12
*1663 FILLER_25_126
*1664 FILLER_25_133
*1665 FILLER_25_137
*1666 FILLER_25_141
*1667 FILLER_25_145
*1668 FILLER_25_16
*1669 FILLER_25_163
*1670 FILLER_25_167
*1671 FILLER_25_169
*1672 FILLER_25_181
*1673 FILLER_25_193
*1674 FILLER_25_20
*1675 FILLER_25_205
*1676 FILLER_25_217
*1677 FILLER_25_223
*1678 FILLER_25_225
*1679 FILLER_25_237
*1680 FILLER_25_249
*1681 FILLER_25_257
*1682 FILLER_25_263
*1683 FILLER_25_276
*1684 FILLER_25_281
*1685 FILLER_25_291
*1686 FILLER_25_3
*1687 FILLER_25_37
*1688 FILLER_25_44
*1689 FILLER_25_51
*1690 FILLER_25_55
*1691 FILLER_25_57
*1692 FILLER_25_75
*1693 FILLER_25_8
*1694 FILLER_25_83
*1695 FILLER_26_121
*1696 FILLER_26_128
*1697 FILLER_26_14
*1698 FILLER_26_141
*1699 FILLER_26_163