*SPEF "ieee 1481-1999"
*DESIGN "top_tt03"
*DATE "11:11:11 Fri 11 11, 1111"
*VENDOR "OpenRCX"
*PROGRAM "Parallel Extraction"
*VERSION "1.0"
*DESIGN_FLOW "NAME_SCOPE LOCAL" "PIN_CAP NONE"
*DIVIDER /
*DELIMITER :
*BUS_DELIMITER []
*T_UNIT 1 NS
*C_UNIT 1 PF
*R_UNIT 1 OHM
*L_UNIT 1 HENRY

*NAME_MAP
*1 io_in[0]
*2 io_in[1]
*3 io_in[2]
*4 io_in[3]
*5 io_in[4]
*6 io_in[5]
*7 io_in[6]
*8 io_in[7]
*9 io_out[0]
*10 io_out[1]
*11 io_out[2]
*12 io_out[3]
*13 io_out[4]
*14 io_out[5]
*15 io_out[6]
*16 io_out[7]
*19 _0000_
*20 _0001_
*21 _0002_
*22 _0003_
*23 _0004_
*24 _0005_
*25 _0006_
*26 _0007_
*27 _0008_
*28 _0009_
*29 _0010_
*30 _0011_
*31 _0012_
*32 _0013_
*33 _0014_
*34 _0015_
*35 _0016_
*36 _0017_
*37 _0018_
*38 _0019_
*39 _0020_
*40 _0021_
*41 _0022_
*42 _0023_
*43 _0024_
*44 _0025_
*45 _0026_
*46 _0027_
*47 _0028_
*48 _0029_
*49 _0030_
*50 _0031_
*51 _0032_
*52 _0033_
*53 _0034_
*54 _0035_
*55 _0036_
*56 _0037_
*57 _0038_
*58 _0039_
*59 _0040_
*60 _0041_
*61 _0042_
*62 _0043_
*63 _0044_
*64 _0045_
*65 _0046_
*66 _0047_
*67 _0048_
*68 _0049_
*69 _0050_
*70 _0051_
*71 _0052_
*72 _0053_
*73 _0054_
*74 _0055_
*75 _0056_
*76 _0057_
*77 _0058_
*78 _0059_
*79 _0060_
*80 _0061_
*81 _0062_
*82 _0063_
*83 _0064_
*84 _0065_
*85 _0066_
*86 _0067_
*87 _0068_
*88 _0069_
*89 _0070_
*90 _0071_
*91 _0072_
*92 _0073_
*93 _0074_
*94 _0075_
*95 _0076_
*96 _0077_
*97 _0078_
*98 _0079_
*99 _0080_
*100 _0081_
*101 _0082_
*102 _0083_
*103 _0084_
*104 _0085_
*105 _0086_
*106 _0087_
*107 _0088_
*108 _0089_
*109 _0090_
*110 _0091_
*111 _0092_
*112 _0093_
*113 _0094_
*114 _0095_
*115 _0096_
*116 _0097_
*117 _0098_
*118 _0099_
*119 _0100_
*120 _0101_
*121 _0102_
*122 _0103_
*123 _0104_
*124 _0105_
*125 _0106_
*126 _0107_
*127 _0108_
*128 _0109_
*129 _0110_
*130 _0111_
*131 _0112_
*132 _0113_
*133 _0114_
*134 _0115_
*135 _0116_
*136 _0117_
*137 _0118_
*138 _0119_
*139 _0120_
*140 _0121_
*141 _0122_
*142 _0123_
*143 _0124_
*144 _0125_
*145 _0126_
*146 _0127_
*147 _0128_
*148 _0129_
*149 _0130_
*150 _0131_
*151 _0132_
*152 _0133_
*153 _0134_
*154 _0135_
*155 _0136_
*156 _0137_
*157 _0138_
*158 _0139_
*159 _0140_
*160 _0141_
*161 _0142_
*162 _0143_
*163 _0144_
*164 _0145_
*165 _0146_
*166 _0147_
*167 _0148_
*168 _0149_
*169 _0150_
*170 _0151_
*171 _0152_
*172 _0153_
*173 _0154_
*174 _0155_
*175 _0156_
*176 _0157_
*177 _0158_
*178 _0159_
*179 _0160_
*180 _0161_
*181 _0162_
*182 _0163_
*183 _0164_
*184 _0165_
*185 _0166_
*186 _0167_
*187 _0168_
*188 _0169_
*189 _0170_
*190 _0171_
*191 _0172_
*192 _0173_
*193 _0174_
*194 _0175_
*195 _0176_
*196 _0177_
*197 _0178_
*198 _0179_
*199 _0180_
*200 _0181_
*201 _0182_
*202 _0183_
*203 _0184_
*204 _0185_
*205 _0186_
*206 _0187_
*207 _0188_
*208 _0189_
*209 _0190_
*210 _0191_
*211 _0192_
*212 _0193_
*213 _0194_
*214 _0195_
*215 _0196_
*216 _0197_
*217 _0198_
*218 _0199_
*219 _0200_
*220 _0201_
*221 _0202_
*222 _0203_
*223 _0204_
*224 _0205_
*225 _0206_
*226 _0207_
*227 _0208_
*228 _0209_
*229 _0210_
*230 _0211_
*231 _0212_
*232 _0213_
*233 _0214_
*234 _0215_
*235 _0216_
*236 _0217_
*237 _0218_
*238 _0219_
*239 _0220_
*240 _0221_
*241 _0222_
*242 _0223_
*243 _0224_
*244 _0225_
*245 _0226_
*246 _0227_
*247 _0228_
*248 _0229_
*249 _0230_
*250 _0231_
*251 _0232_
*252 _0233_
*253 _0234_
*254 _0235_
*255 _0236_
*256 _0237_
*257 _0238_
*258 _0239_
*259 _0240_
*260 _0241_
*261 _0242_
*262 _0243_
*263 _0244_
*264 _0245_
*265 _0246_
*266 _0247_
*267 _0248_
*268 _0249_
*269 _0250_
*270 _0251_
*271 _0252_
*272 _0253_
*273 _0254_
*274 _0255_
*275 _0256_
*276 _0257_
*277 _0258_
*278 _0259_
*279 _0260_
*280 _0261_
*281 _0262_
*282 _0263_
*283 _0264_
*284 _0265_
*285 _0266_
*286 _0267_
*287 _0268_
*288 _0269_
*289 _0270_
*290 _0271_
*291 _0272_
*292 _0273_
*293 _0274_
*294 _0275_
*295 _0276_
*296 _0277_
*297 _0278_
*298 _0279_
*299 _0280_
*300 _0281_
*301 _0282_
*302 _0283_
*303 _0284_
*304 _0285_
*305 _0286_
*306 _0287_
*307 _0288_
*308 _0289_
*309 _0290_
*310 _0291_
*311 _0292_
*312 _0293_
*313 _0294_
*314 _0295_
*315 _0296_
*316 _0297_
*317 _0298_
*318 _0299_
*319 _0300_
*320 _0301_
*321 _0302_
*322 _0303_
*323 _0304_
*324 _0305_
*325 _0306_
*326 _0307_
*327 _0308_
*328 _0309_
*329 _0310_
*330 _0311_
*331 _0312_
*332 _0313_
*333 _0314_
*334 _0315_
*335 _0316_
*336 _0317_
*337 _0318_
*338 _0319_
*339 _0320_
*340 _0321_
*341 _0322_
*342 _0323_
*343 _0324_
*344 _0325_
*345 _0326_
*346 _0327_
*347 _0328_
*348 _0329_
*349 _0330_
*350 _0331_
*351 _0332_
*352 _0333_
*353 _0334_
*354 _0335_
*355 _0336_
*356 _0337_
*357 _0338_
*358 _0339_
*359 _0340_
*360 _0341_
*361 _0342_
*362 _0343_
*363 _0344_
*364 _0345_
*365 _0346_
*366 _0347_
*367 _0348_
*368 _0349_
*369 _0350_
*370 _0351_
*371 _0352_
*372 _0353_
*373 _0354_
*374 _0355_
*375 _0356_
*376 _0357_
*377 _0358_
*378 _0359_
*379 _0360_
*380 _0361_
*381 _0362_
*382 _0363_
*383 _0364_
*384 _0365_
*385 _0366_
*386 _0367_
*387 _0368_
*388 _0369_
*389 _0370_
*390 _0371_
*391 _0372_
*392 _0373_
*393 _0374_
*394 _0375_
*395 _0376_
*396 _0377_
*397 _0378_
*398 _0379_
*399 _0380_
*400 _0381_
*401 _0382_
*402 _0383_
*403 _0384_
*404 _0385_
*405 _0386_
*406 _0387_
*407 _0388_
*408 _0389_
*409 _0390_
*410 _0391_
*411 _0392_
*412 _0393_
*413 _0394_
*414 _0395_
*415 _0396_
*416 _0397_
*417 _0398_
*418 _0399_
*419 _0400_
*420 _0401_
*421 _0402_
*422 _0403_
*423 _0404_
*424 _0405_
*425 _0406_
*426 _0407_
*427 _0408_
*428 _0409_
*429 _0410_
*430 _0411_
*431 _0412_
*432 _0413_
*433 _0414_
*434 _0415_
*435 _0416_
*436 _0417_
*437 _0418_
*438 _0419_
*439 _0420_
*440 _0421_
*441 _0422_
*442 _0423_
*443 _0424_
*444 _0425_
*445 _0426_
*446 _0427_
*447 _0428_
*448 _0429_
*449 _0430_
*450 _0431_
*451 _0432_
*452 _0433_
*453 _0434_
*454 _0435_
*455 _0436_
*456 _0437_
*457 _0438_
*458 _0439_
*459 _0440_
*460 _0441_
*461 _0442_
*462 _0443_
*463 _0444_
*464 _0445_
*465 _0446_
*466 _0447_
*467 _0448_
*468 _0449_
*469 _0450_
*470 _0451_
*471 _0452_
*472 _0453_
*473 _0454_
*474 _0455_
*475 _0456_
*476 _0457_
*477 _0458_
*478 _0459_
*479 _0460_
*480 _0461_
*481 _0462_
*482 _0463_
*483 _0464_
*484 _0465_
*485 _0466_
*486 _0467_
*487 _0468_
*488 _0469_
*489 _0470_
*490 _0471_
*491 _0472_
*492 _0473_
*493 _0474_
*494 _0475_
*495 _0476_
*496 _0477_
*497 _0478_
*498 _0479_
*499 _0480_
*500 _0481_
*501 _0482_
*502 _0483_
*503 _0484_
*504 _0485_
*505 _0486_
*506 _0487_
*507 _0488_
*508 _0489_
*509 _0490_
*510 _0491_
*511 _0492_
*512 _0493_
*513 _0494_
*514 _0495_
*515 _0496_
*516 _0497_
*517 _0498_
*518 _0499_
*519 _0500_
*520 _0501_
*521 _0502_
*522 _0503_
*523 _0504_
*524 _0505_
*525 _0506_
*526 _0507_
*527 _0508_
*528 _0509_
*529 _0510_
*530 _0511_
*531 _0512_
*532 _0513_
*533 _0514_
*534 _0515_
*535 _0516_
*536 _0517_
*537 _0518_
*538 _0519_
*539 _0520_
*540 _0521_
*541 _0522_
*542 _0523_
*543 _0524_
*544 _0525_
*545 _0526_
*546 _0527_
*547 _0528_
*548 _0529_
*549 _0530_
*550 _0531_
*551 _0532_
*552 _0533_
*553 _0534_
*554 _0535_
*555 _0536_
*556 _0537_
*557 _0538_
*558 _0539_
*559 _0540_
*560 _0541_
*561 _0542_
*562 _0543_
*563 _0544_
*564 _0545_
*565 _0546_
*566 _0547_
*567 _0548_
*568 _0549_
*569 _0550_
*570 _0551_
*571 _0552_
*572 _0553_
*573 _0554_
*574 _0555_
*575 _0556_
*576 _0557_
*577 _0558_
*578 _0559_
*579 _0560_
*580 _0561_
*581 _0562_
*582 _0563_
*583 _0564_
*584 _0565_
*585 _0566_
*586 _0567_
*587 _0568_
*588 _0569_
*589 _0570_
*590 _0571_
*591 _0572_
*592 _0573_
*593 _0574_
*594 _0575_
*595 _0576_
*596 _0577_
*597 _0578_
*598 _0579_
*599 _0580_
*600 _0581_
*601 _0582_
*602 _0583_
*603 _0584_
*604 clknet_0__0154_
*605 clknet_0__0187_
*606 clknet_1_0__leaf__0187_
*607 clknet_1_1__leaf__0187_
*608 clknet_4_0_0__0154_
*609 clknet_4_10_0__0154_
*610 clknet_4_11_0__0154_
*611 clknet_4_12_0__0154_
*612 clknet_4_13_0__0154_
*613 clknet_4_14_0__0154_
*614 clknet_4_15_0__0154_
*615 clknet_4_1_0__0154_
*616 clknet_4_2_0__0154_
*617 clknet_4_3_0__0154_
*618 clknet_4_4_0__0154_
*619 clknet_4_5_0__0154_
*620 clknet_4_6_0__0154_
*621 clknet_4_7_0__0154_
*622 clknet_4_8_0__0154_
*623 clknet_4_9_0__0154_
*624 cont\.count\[0\]
*625 cont\.count\[10\]
*626 cont\.count\[11\]
*627 cont\.count\[12\]
*628 cont\.count\[13\]
*629 cont\.count\[14\]
*630 cont\.count\[15\]
*631 cont\.count\[1\]
*632 cont\.count\[2\]
*633 cont\.count\[3\]
*634 cont\.count\[4\]
*635 cont\.count\[5\]
*636 cont\.count\[6\]
*637 cont\.count\[7\]
*638 cont\.count\[8\]
*639 cont\.count\[9\]
*640 cont\.osc_clk
*641 controller\.rx_data\[0\]
*642 controller\.rx_data\[1\]
*643 controller\.rx_data\[2\]
*644 controller\.rx_data\[3\]
*645 controller\.rx_data\[4\]
*646 controller\.rx_data\[5\]
*647 controller\.rx_data\[6\]
*648 controller\.rx_data\[7\]
*649 controller\.rx_ready
*650 controller\.state\[0\]
*651 controller\.state\[1\]
*652 controller\.state\[2\]
*653 controller\.state\[3\]
*654 controller\.sum_ready
*655 controller\.timer\[0\]
*656 controller\.timer\[10\]
*657 controller\.timer\[11\]
*658 controller\.timer\[12\]
*659 controller\.timer\[13\]
*660 controller\.timer\[14\]
*661 controller\.timer\[15\]
*662 controller\.timer\[1\]
*663 controller\.timer\[2\]
*664 controller\.timer\[3\]
*665 controller\.timer\[4\]
*666 controller\.timer\[5\]
*667 controller\.timer\[6\]
*668 controller\.timer\[7\]
*669 controller\.timer\[8\]
*670 controller\.timer\[9\]
*671 m2\.a
*672 m2\.b
*673 net1
*674 net10
*675 net100
*676 net101
*677 net102
*678 net103
*679 net104
*680 net105
*681 net106
*682 net107
*683 net108
*684 net109
*685 net11
*686 net110
*687 net111
*688 net112
*689 net113
*690 net114
*691 net115
*692 net116
*693 net117
*694 net118
*695 net119
*696 net12
*697 net120
*698 net121
*699 net122
*700 net123
*701 net124
*702 net125
*703 net126
*704 net127
*705 net128
*706 net129
*707 net13
*708 net130
*709 net131
*710 net132
*711 net133
*712 net134
*713 net135
*714 net136
*715 net137
*716 net138
*717 net139
*718 net14
*719 net140
*720 net141
*721 net142
*722 net143
*723 net144
*724 net145
*725 net146
*726 net147
*727 net148
*728 net149
*729 net15
*730 net150
*731 net151
*732 net16
*733 net17
*734 net18
*735 net19
*736 net2
*737 net20
*738 net21
*739 net22
*740 net23
*741 net24
*742 net25
*743 net26
*744 net27
*745 net28
*746 net29
*747 net3
*748 net30
*749 net31
*750 net32
*751 net33
*752 net34
*753 net35
*754 net36
*755 net37
*756 net38
*757 net39
*758 net4
*759 net40
*760 net41
*761 net42
*762 net43
*763 net44
*764 net45
*765 net46
*766 net47
*767 net48
*768 net49
*769 net5
*770 net50
*771 net51
*772 net52
*773 net53
*774 net54
*775 net55
*776 net56
*777 net57
*778 net58
*779 net59
*780 net6
*781 net60
*782 net61
*783 net62
*784 net63
*785 net64
*786 net65
*787 net66
*788 net67
*789 net68
*790 net69
*791 net7
*792 net70
*793 net71
*794 net72
*795 net73
*796 net74
*797 net75
*798 net76
*799 net77
*800 net78
*801 net79
*802 net8
*803 net80
*804 net81
*805 net82
*806 net83
*807 net84
*808 net85
*809 net86
*810 net87
*811 net88
*812 net89
*813 net9
*814 net90
*815 net91
*816 net92
*817 net93
*818 net94
*819 net95
*820 net96
*821 net97
*822 net98
*823 net99
*824 osc1\.aux_wire\[0\]
*825 osc1\.aux_wire\[10\]
*826 osc1\.aux_wire\[11\]
*827 osc1\.aux_wire\[12\]
*828 osc1\.aux_wire\[13\]
*829 osc1\.aux_wire\[14\]
*830 osc1\.aux_wire\[15\]
*831 osc1\.aux_wire\[16\]
*832 osc1\.aux_wire\[17\]
*833 osc1\.aux_wire\[18\]
*834 osc1\.aux_wire\[19\]
*835 osc1\.aux_wire\[1\]
*836 osc1\.aux_wire\[20\]
*837 osc1\.aux_wire\[21\]
*838 osc1\.aux_wire\[22\]
*839 osc1\.aux_wire\[23\]
*840 osc1\.aux_wire\[24\]
*841 osc1\.aux_wire\[25\]
*842 osc1\.aux_wire\[26\]
*843 osc1\.aux_wire\[27\]
*844 osc1\.aux_wire\[28\]
*845 osc1\.aux_wire\[29\]
*846 osc1\.aux_wire\[2\]
*847 osc1\.aux_wire\[30\]
*848 osc1\.aux_wire\[31\]
*849 osc1\.aux_wire\[32\]
*850 osc1\.aux_wire\[33\]
*851 osc1\.aux_wire\[34\]
*852 osc1\.aux_wire\[35\]
*853 osc1\.aux_wire\[36\]
*854 osc1\.aux_wire\[37\]
*855 osc1\.aux_wire\[38\]
*856 osc1\.aux_wire\[39\]
*857 osc1\.aux_wire\[3\]
*858 osc1\.aux_wire\[40\]
*859 osc1\.aux_wire\[41\]
*860 osc1\.aux_wire\[42\]
*861 osc1\.aux_wire\[43\]
*862 osc1\.aux_wire\[44\]
*863 osc1\.aux_wire\[45\]
*864 osc1\.aux_wire\[46\]
*865 osc1\.aux_wire\[47\]
*866 osc1\.aux_wire\[48\]
*867 osc1\.aux_wire\[49\]
*868 osc1\.aux_wire\[4\]
*869 osc1\.aux_wire\[50\]
*870 osc1\.aux_wire\[51\]
*871 osc1\.aux_wire\[52\]
*872 osc1\.aux_wire\[53\]
*873 osc1\.aux_wire\[54\]
*874 osc1\.aux_wire\[55\]
*875 osc1\.aux_wire\[56\]
*876 osc1\.aux_wire\[57\]
*877 osc1\.aux_wire\[58\]
*878 osc1\.aux_wire\[59\]
*879 osc1\.aux_wire\[5\]
*880 osc1\.aux_wire\[60\]
*881 osc1\.aux_wire\[61\]
*882 osc1\.aux_wire\[62\]
*883 osc1\.aux_wire\[63\]
*884 osc1\.aux_wire\[64\]
*885 osc1\.aux_wire\[65\]
*886 osc1\.aux_wire\[66\]
*887 osc1\.aux_wire\[67\]
*888 osc1\.aux_wire\[68\]
*889 osc1\.aux_wire\[69\]
*890 osc1\.aux_wire\[6\]
*891 osc1\.aux_wire\[70\]
*892 osc1\.aux_wire\[71\]
*893 osc1\.aux_wire\[72\]
*894 osc1\.aux_wire\[73\]
*895 osc1\.aux_wire\[74\]
*896 osc1\.aux_wire\[75\]
*897 osc1\.aux_wire\[76\]
*898 osc1\.aux_wire\[77\]
*899 osc1\.aux_wire\[78\]
*900 osc1\.aux_wire\[79\]
*901 osc1\.aux_wire\[7\]
*902 osc1\.aux_wire\[80\]
*903 osc1\.aux_wire\[81\]
*904 osc1\.aux_wire\[82\]
*905 osc1\.aux_wire\[83\]
*906 osc1\.aux_wire\[84\]
*907 osc1\.aux_wire\[85\]
*908 osc1\.aux_wire\[86\]
*909 osc1\.aux_wire\[87\]
*910 osc1\.aux_wire\[88\]
*911 osc1\.aux_wire\[89\]
*912 osc1\.aux_wire\[8\]
*913 osc1\.aux_wire\[90\]
*914 osc1\.aux_wire\[91\]
*915 osc1\.aux_wire\[92\]
*916 osc1\.aux_wire\[93\]
*917 osc1\.aux_wire\[94\]
*918 osc1\.aux_wire\[95\]
*919 osc1\.aux_wire\[96\]
*920 osc1\.aux_wire\[97\]
*921 osc1\.aux_wire\[98\]
*922 osc1\.aux_wire\[9\]
*923 osc2\.aux_wire\[0\]
*924 osc2\.aux_wire\[10\]
*925 osc2\.aux_wire\[11\]
*926 osc2\.aux_wire\[12\]
*927 osc2\.aux_wire\[13\]
*928 osc2\.aux_wire\[14\]
*929 osc2\.aux_wire\[15\]
*930 osc2\.aux_wire\[16\]
*931 osc2\.aux_wire\[17\]
*932 osc2\.aux_wire\[18\]
*933 osc2\.aux_wire\[19\]
*934 osc2\.aux_wire\[1\]
*935 osc2\.aux_wire\[20\]
*936 osc2\.aux_wire\[21\]
*937 osc2\.aux_wire\[22\]
*938 osc2\.aux_wire\[23\]
*939 osc2\.aux_wire\[24\]
*940 osc2\.aux_wire\[25\]
*941 osc2\.aux_wire\[26\]
*942 osc2\.aux_wire\[27\]
*943 osc2\.aux_wire\[28\]
*944 osc2\.aux_wire\[29\]
*945 osc2\.aux_wire\[2\]
*946 osc2\.aux_wire\[30\]
*947 osc2\.aux_wire\[31\]
*948 osc2\.aux_wire\[32\]
*949 osc2\.aux_wire\[3\]
*950 osc2\.aux_wire\[4\]
*951 osc2\.aux_wire\[5\]
*952 osc2\.aux_wire\[6\]
*953 osc2\.aux_wire\[7\]
*954 osc2\.aux_wire\[8\]
*955 osc2\.aux_wire\[9\]
*956 prom\.contador\[0\]
*957 prom\.contador\[10\]
*958 prom\.contador\[11\]
*959 prom\.contador\[12\]
*960 prom\.contador\[13\]
*961 prom\.contador\[14\]
*962 prom\.contador\[15\]
*963 prom\.contador\[1\]
*964 prom\.contador\[2\]
*965 prom\.contador\[3\]
*966 prom\.contador\[4\]
*967 prom\.contador\[5\]
*968 prom\.contador\[6\]
*969 prom\.contador\[7\]
*970 prom\.contador\[8\]
*971 prom\.contador\[9\]
*972 prom\.out\[0\]
*973 prom\.out\[10\]
*974 prom\.out\[11\]
*975 prom\.out\[12\]
*976 prom\.out\[13\]
*977 prom\.out\[14\]
*978 prom\.out\[15\]
*979 prom\.out\[1\]
*980 prom\.out\[2\]
*981 prom\.out\[3\]
*982 prom\.out\[4\]
*983 prom\.out\[5\]
*984 prom\.out\[6\]
*985 prom\.out\[7\]
*986 prom\.out\[8\]
*987 prom\.out\[9\]
*988 prom\.promedio\[0\]
*989 prom\.promedio\[10\]
*990 prom\.promedio\[11\]
*991 prom\.promedio\[12\]
*992 prom\.promedio\[13\]
*993 prom\.promedio\[14\]
*994 prom\.promedio\[15\]
*995 prom\.promedio\[1\]
*996 prom\.promedio\[2\]
*997 prom\.promedio\[3\]
*998 prom\.promedio\[4\]
*999 prom\.promedio\[5\]
*1000 prom\.promedio\[6\]
*1001 prom\.promedio\[7\]
*1002 prom\.promedio\[8\]
*1003 prom\.promedio\[9\]
*1004 uart\.baud8_tick_blk\.acc\[0\]
*1005 uart\.baud8_tick_blk\.acc\[10\]
*1006 uart\.baud8_tick_blk\.acc\[11\]
*1007 uart\.baud8_tick_blk\.acc\[12\]
*1008 uart\.baud8_tick_blk\.acc\[1\]
*1009 uart\.baud8_tick_blk\.acc\[2\]
*1010 uart\.baud8_tick_blk\.acc\[3\]
*1011 uart\.baud8_tick_blk\.acc\[4\]
*1012 uart\.baud8_tick_blk\.acc\[5\]
*1013 uart\.baud8_tick_blk\.acc\[6\]
*1014 uart\.baud8_tick_blk\.acc\[7\]
*1015 uart\.baud8_tick_blk\.acc\[8\]
*1016 uart\.baud8_tick_blk\.acc\[9\]
*1017 uart\.baud_tick_blk\.acc\[10\]
*1018 uart\.baud_tick_blk\.acc\[11\]
*1019 uart\.baud_tick_blk\.acc\[12\]
*1020 uart\.baud_tick_blk\.acc\[1\]
*1021 uart\.baud_tick_blk\.acc\[2\]
*1022 uart\.baud_tick_blk\.acc\[3\]
*1023 uart\.baud_tick_blk\.acc\[4\]
*1024 uart\.baud_tick_blk\.acc\[5\]
*1025 uart\.baud_tick_blk\.acc\[6\]
*1026 uart\.baud_tick_blk\.acc\[7\]
*1027 uart\.baud_tick_blk\.acc\[8\]
*1028 uart\.baud_tick_blk\.acc\[9\]
*1029 uart\.rx_ready_pre
*1030 uart\.rx_ready_sync
*1031 uart\.tx
*1032 uart\.uart_rx_blk\.bit_counter\[0\]
*1033 uart\.uart_rx_blk\.bit_counter\[1\]
*1034 uart\.uart_rx_blk\.bit_counter\[2\]
*1035 uart\.uart_rx_blk\.rx_bit
*1036 uart\.uart_rx_blk\.rx_sync_inst\.in_sync
*1037 uart\.uart_rx_blk\.rx_sync_inst\.in_sync_sr\[1\]
*1038 uart\.uart_rx_blk\.rx_sync_inst\.sync_counter\[0\]
*1039 uart\.uart_rx_blk\.rx_sync_inst\.sync_counter\[1\]
*1040 uart\.uart_rx_blk\.spacing_counter\[0\]
*1041 uart\.uart_rx_blk\.spacing_counter\[1\]
*1042 uart\.uart_rx_blk\.spacing_counter\[2\]
*1043 uart\.uart_rx_blk\.state\[0\]
*1044 uart\.uart_rx_blk\.state\[1\]
*1045 uart\.uart_rx_blk\.state\[2\]
*1046 uart\.uart_tx_blk\.counter\[0\]
*1047 uart\.uart_tx_blk\.counter\[1\]
*1048 uart\.uart_tx_blk\.counter\[2\]
*1049 uart\.uart_tx_blk\.state\[0\]
*1050 uart\.uart_tx_blk\.state\[1\]
*1051 uart\.uart_tx_blk\.tx_data_reg\[0\]
*1052 uart\.uart_tx_blk\.tx_data_reg\[1\]
*1053 uart\.uart_tx_blk\.tx_data_reg\[2\]
*1054 uart\.uart_tx_blk\.tx_data_reg\[3\]
*1055 uart\.uart_tx_blk\.tx_data_reg\[4\]
*1056 uart\.uart_tx_blk\.tx_data_reg\[5\]
*1057 uart\.uart_tx_blk\.tx_data_reg\[6\]
*1058 uart\.uart_tx_blk\.tx_data_reg\[7\]
*1059 ANTENNA_1
*1060 ANTENNA_10
*1061 ANTENNA_11
*1062 ANTENNA_12
*1063 ANTENNA_13
*1064 ANTENNA_14
*1065 ANTENNA_15
*1066 ANTENNA_16
*1067 ANTENNA_17
*1068 ANTENNA_18
*1069 ANTENNA_19
*1070 ANTENNA_2
*1071 ANTENNA_20
*1072 ANTENNA_21
*1073 ANTENNA_22
*1074 ANTENNA_23
*1075 ANTENNA_24
*1076 ANTENNA_25
*1077 ANTENNA_26
*1078 ANTENNA_27
*1079 ANTENNA_28
*1080 ANTENNA_29
*1081 ANTENNA_3
*1082 ANTENNA_30
*1083 ANTENNA_31
*1084 ANTENNA_32
*1085 ANTENNA_33
*1086 ANTENNA_34
*1087 ANTENNA_35
*1088 ANTENNA_36
*1089 ANTENNA_37
*1090 ANTENNA_38
*1091 ANTENNA_39
*1092 ANTENNA_4
*1093 ANTENNA_40
*1094 ANTENNA_41
*1095 ANTENNA_42
*1096 ANTENNA_43
*1097 ANTENNA_44
*1098 ANTENNA_45
*1099 ANTENNA_46
*1100 ANTENNA_47
*1101 ANTENNA_48
*1102 ANTENNA_49
*1103 ANTENNA_5
*1104 ANTENNA_50
*1105 ANTENNA_51
*1106 ANTENNA_52
*1107 ANTENNA_53
*1108 ANTENNA_54
*1109 ANTENNA_55
*1110 ANTENNA_56
*1111 ANTENNA_57
*1112 ANTENNA_58
*1113 ANTENNA_59
*1114 ANTENNA_6
*1115 ANTENNA_60
*1116 ANTENNA_61
*1117 ANTENNA_62
*1118 ANTENNA_63
*1119 ANTENNA_64
*1120 ANTENNA_65
*1121 ANTENNA_66
*1122 ANTENNA_67
*1123 ANTENNA_68
*1124 ANTENNA_69
*1125 ANTENNA_7
*1126 ANTENNA_70
*1127 ANTENNA_71
*1128 ANTENNA_8
*1129 ANTENNA_9
*1130 FILLER_0_106
*1131 FILLER_0_113
*1132 FILLER_0_131
*1133 FILLER_0_138
*1134 FILLER_0_141
*1135 FILLER_0_159
*1136 FILLER_0_166
*1137 FILLER_0_169
*1138 FILLER_0_187
*1139 FILLER_0_194
*1140 FILLER_0_197
*1141 FILLER_0_216
*1142 FILLER_0_225
*1143 FILLER_0_250
*1144 FILLER_0_253
*1145 FILLER_0_26
*1146 FILLER_0_272
*1147 FILLER_0_281
*1148 FILLER_0_286
*1149 FILLER_0_29
*1150 FILLER_0_293
*1151 FILLER_0_3
*1152 FILLER_0_54
*1153 FILLER_0_74
*1154 FILLER_0_78
*1155 FILLER_0_85
*1156 FILLER_10_110
*1157 FILLER_10_115
*1158 FILLER_10_133
*1159 FILLER_10_139
*1160 FILLER_10_141
*1161 FILLER_10_160
*1162 FILLER_10_167
*1163 FILLER_10_171
*1164 FILLER_10_178
*1165 FILLER_10_185
*1166 FILLER_10_192
*1167 FILLER_10_197
*1168 FILLER_10_202
*1169 FILLER_10_209
*1170 FILLER_10_215
*1171 FILLER_10_222
*1172 FILLER_10_229
*1173 FILLER_10_236
*1174 FILLER_10_243
*1175 FILLER_10_250
*1176 FILLER_10_253
*1177 FILLER_10_258
*1178 FILLER_10_26
*1179 FILLER_10_265
*1180 FILLER_10_290
*1181 FILLER_10_297
*1182 FILLER_10_40
*1183 FILLER_10_44
*1184 FILLER_10_63
*1185 FILLER_10_69
*1186 FILLER_10_81
*1187 FILLER_10_85
*1188 FILLER_10_90
*1189 FILLER_11_106
*1190 FILLER_11_113
*1191 FILLER_11_122
*1192 FILLER_11_128
*1193 FILLER_11_14
*1194 FILLER_11_146
*1195 FILLER_11_153
*1196 FILLER_11_161
*1197 FILLER_11_166
*1198 FILLER_11_169
*1199 FILLER_11_175
*1200 FILLER_11_182
*1201 FILLER_11_189
*1202 FILLER_11_196
*1203 FILLER_11_206
*1204 FILLER_11_216
*1205 FILLER_11_225
*1206 FILLER_11_230
*1207 FILLER_11_237
*1208 FILLER_11_244
*1209 FILLER_11_251
*1210 FILLER_11_258
*1211 FILLER_11_270
*1212 FILLER_11_278
*1213 FILLER_11_281
*1214 FILLER_11_291
*1215 FILLER_11_3
*1216 FILLER_11_32
*1217 FILLER_11_36
*1218 FILLER_11_54
*1219 FILLER_11_57
*1220 FILLER_11_76
*1221 FILLER_11_8
*1222 FILLER_11_82
*1223 FILLER_11_86
*1224 FILLER_12_106
*1225 FILLER_12_126
*1226 FILLER_12_134
*1227 FILLER_12_138
*1228 FILLER_12_141
*1229 FILLER_12_164
*1230 FILLER_12_170
*1231 FILLER_12_175
*1232 FILLER_12_182
*1233 FILLER_12_188
*1234 FILLER_12_194
*1235 FILLER_12_197
*1236 FILLER_12_203
*1237 FILLER_12_210
*1238 FILLER_12_221
*1239 FILLER_12_228
*1240 FILLER_12_235
*1241 FILLER_12_242
*1242 FILLER_12_249
*1243 FILLER_12_253
*1244 FILLER_12_26
*1245 FILLER_12_261
*1246 FILLER_12_273
*1247 FILLER_12_277
*1248 FILLER_12_29
*1249 FILLER_12_295
*1250 FILLER_12_3
*1251 FILLER_12_48
*1252 FILLER_12_57
*1253 FILLER_12_61
*1254 FILLER_12_78
*1255 FILLER_12_8
*1256 FILLER_12_85
*1257 FILLER_12_89
*1258 FILLER_13_110
*1259 FILLER_13_113
*1260 FILLER_13_117
*1261 FILLER_13_123
*1262 FILLER_13_127
*1263 FILLER_13_145
*1264 FILLER_13_160
*1265 FILLER_13_169
*1266 FILLER_13_179
*1267 FILLER_13_187
*1268 FILLER_13_194
*1269 FILLER_13_201
*1270 FILLER_13_208
*1271 FILLER_13_21
*1272 FILLER_13_222
*1273 FILLER_13_225
*1274 FILLER_13_230
*1275 FILLER_13_237
*1276 FILLER_13_249
*1277 FILLER_13_261
*1278 FILLER_13_265
*1279 FILLER_13_269
*1280 FILLER_13_278
*1281 FILLER_13_281
*1282 FILLER_13_297
*1283 FILLER_13_3
*1284 FILLER_13_42
*1285 FILLER_13_54
*1286 FILLER_13_57
*1287 FILLER_13_68
*1288 FILLER_13_89
*1289 FILLER_13_93
*1290 FILLER_14_113
*1291 FILLER_14_121
*1292 FILLER_14_138
*1293 FILLER_14_141
*1294 FILLER_14_146
*1295 FILLER_14_166
*1296 FILLER_14_173
*1297 FILLER_14_180
*1298 FILLER_14_187
*1299 FILLER_14_194
*1300 FILLER_14_197
*1301 FILLER_14_205
*1302 FILLER_14_212
*1303 FILLER_14_216
*1304 FILLER_14_225
*1305 FILLER_14_232
*1306 FILLER_14_244
*1307 FILLER_14_253
*1308 FILLER_14_26
*1309 FILLER_14_265
*1310 FILLER_14_272
*1311 FILLER_14_279
*1312 FILLER_14_290
*1313 FILLER_14_297
*1314 FILLER_14_3
*1315 FILLER_14_40
*1316 FILLER_14_44
*1317 FILLER_14_62
*1318 FILLER_14_82
*1319 FILLER_14_85
*1320 FILLER_14_9
*1321 FILLER_14_92
*1322 FILLER_15_107
*1323 FILLER_15_111
*1324 FILLER_15_113
*1325 FILLER_15_118
*1326 FILLER_15_123
*1327 FILLER_15_127
*1328 FILLER_15_14
*1329 FILLER_15_146
*1330 FILLER_15_166
*1331 FILLER_15_169
*1332 FILLER_15_174
*1333 FILLER_15_183
*1334 FILLER_15_190
*1335 FILLER_15_203
*1336 FILLER_15_207
*1337 FILLER_15_211
*1338 FILLER_15_218
*1339 FILLER_15_225
*1340 FILLER_15_229
*1341 FILLER_15_233
*1342 FILLER_15_243
*1343 FILLER_15_255
*1344 FILLER_15_263
*1345 FILLER_15_267
*1346 FILLER_15_271
*1347 FILLER_15_278
*1348 FILLER_15_281
*1349 FILLER_15_292
*1350 FILLER_15_298
*1351 FILLER_15_3
*1352 FILLER_15_34
*1353 FILLER_15_54
*1354 FILLER_15_57
*1355 FILLER_15_65
*1356 FILLER_15_69
*1357 FILLER_15_87
*1358 FILLER_16_110
*1359 FILLER_16_116
*1360 FILLER_16_134
*1361 FILLER_16_141
*1362 FILLER_16_147
*1363 FILLER_16_151
*1364 FILLER_16_158
*1365 FILLER_16_168
*1366 FILLER_16_176
*1367 FILLER_16_183
*1368 FILLER_16_192
*1369 FILLER_16_197
*1370 FILLER_16_202
*1371 FILLER_16_209
*1372 FILLER_16_217
*1373 FILLER_16_223
*1374 FILLER_16_227
*1375 FILLER_16_234
*1376 FILLER_16_246
*1377 FILLER_16_253
*1378 FILLER_16_26
*1379 FILLER_16_260
*1380 FILLER_16_264
*1381 FILLER_16_272
*1382 FILLER_16_283
*1383 FILLER_16_29
*1384 FILLER_16_297
*1385 FILLER_16_3
*1386 FILLER_16_34
*1387 FILLER_16_38
*1388 FILLER_16_55
*1389 FILLER_16_63
*1390 FILLER_16_81
*1391 FILLER_16_85
*1392 FILLER_16_9
*1393 FILLER_16_90
*1394 FILLER_17_110
*1395 FILLER_17_113
*1396 FILLER_17_118
*1397 FILLER_17_125
*1398 FILLER_17_143
*1399 FILLER_17_147
*1400 FILLER_17_166
*1401 FILLER_17_169
*1402 FILLER_17_174
*1403 FILLER_17_182
*1404 FILLER_17_186
*1405 FILLER_17_193
*1406 FILLER_17_205
*1407 FILLER_17_217
*1408 FILLER_17_223
*1409 FILLER_17_225
*1410 FILLER_17_23
*1411 FILLER_17_230
*1412 FILLER_17_249
*1413 FILLER_17_261
*1414 FILLER_17_267
*1415 FILLER_17_271
*1416 FILLER_17_278
*1417 FILLER_17_281
*1418 FILLER_17_287
*1419 FILLER_17_296
*1420 FILLER_17_3
*1421 FILLER_17_46
*1422 FILLER_17_54
*1423 FILLER_17_57
*1424 FILLER_17_76
*1425 FILLER_17_80
*1426 FILLER_17_86
*1427 FILLER_18_104
*1428 FILLER_18_111
*1429 FILLER_18_119
*1430 FILLER_18_138
*1431 FILLER_18_141
*1432 FILLER_18_163
*1433 FILLER_18_170
*1434 FILLER_18_177
*1435 FILLER_18_184
*1436 FILLER_18_191
*1437 FILLER_18_195
*1438 FILLER_18_197
*1439 FILLER_18_209
*1440 FILLER_18_215
*1441 FILLER_18_222
*1442 FILLER_18_234
*1443 FILLER_18_242
*1444 FILLER_18_250
*1445 FILLER_18_253
*1446 FILLER_18_26
*1447 FILLER_18_264
*1448 FILLER_18_275
*1449 FILLER_18_284
*1450 FILLER_18_29
*1451 FILLER_18_293
*1452 FILLER_18_3
*1453 FILLER_18_48
*1454 FILLER_18_59
*1455 FILLER_18_68
*1456 FILLER_18_75
*1457 FILLER_18_8
*1458 FILLER_18_82
*1459 FILLER_18_85
*1460 FILLER_19_102
*1461 FILLER_19_109
*1462 FILLER_19_113
*1463 FILLER_19_118
*1464 FILLER_19_139
*1465 FILLER_19_152
*1466 FILLER_19_156
*1467 FILLER_19_161
*1468 FILLER_19_167
*1469 FILLER_19_169
*1470 FILLER_19_175
*1471 FILLER_19_180
*1472 FILLER_19_192
*1473 FILLER_19_200
*1474 FILLER_19_21
*1475 FILLER_19_210
*1476 FILLER_19_222
*1477 FILLER_19_225
*1478 FILLER_19_230
*1479 FILLER_19_242
*1480 FILLER_19_246
*1481 FILLER_19_255
*1482 FILLER_19_259
*1483 FILLER_19_265
*1484 FILLER_19_273
*1485 FILLER_19_278
*1486 FILLER_19_281
*1487 FILLER_19_294
*1488 FILLER_19_298
*1489 FILLER_19_3
*1490 FILLER_19_41
*1491 FILLER_19_49
*1492 FILLER_19_54
*1493 FILLER_19_57
*1494 FILLER_19_63
*1495 FILLER_19_67
*1496 FILLER_19_74
*1497 FILLER_19_81
*1498 FILLER_1_10
*1499 FILLER_1_107
*1500 FILLER_1_111
*1501 FILLER_1_113
*1502 FILLER_1_123
*1503 FILLER_1_127
*1504 FILLER_1_14
*1505 FILLER_1_144
*1506 FILLER_1_165
*1507 FILLER_1_169
*1508 FILLER_1_188
*1509 FILLER_1_209
*1510 FILLER_1_216
*1511 FILLER_1_225
*1512 FILLER_1_232
*1513 FILLER_1_240
*1514 FILLER_1_258
*1515 FILLER_1_267
*1516 FILLER_1_274
*1517 FILLER_1_281
*1518 FILLER_1_286
*1519 FILLER_1_293
*1520 FILLER_1_49
*1521 FILLER_1_53
*1522 FILLER_1_60
*1523 FILLER_1_78
*1524 FILLER_1_82
*1525 FILLER_1_86
*1526 FILLER_20_103
*1527 FILLER_20_111
*1528 FILLER_20_129
*1529 FILLER_20_138
*1530 FILLER_20_141
*1531 FILLER_20_161
*1532 FILLER_20_168
*1533 FILLER_20_180
*1534 FILLER_20_192
*1535 FILLER_20_197
*1536 FILLER_20_209
*1537 FILLER_20_228
*1538 FILLER_20_235
*1539 FILLER_20_247
*1540 FILLER_20_251
*1541 FILLER_20_253
*1542 FILLER_20_26
*1543 FILLER_20_265
*1544 FILLER_20_274
*1545 FILLER_20_281
*1546 FILLER_20_289
*1547 FILLER_20_29
*1548 FILLER_20_295
*1549 FILLER_20_3
*1550 FILLER_20_37
*1551 FILLER_20_44
*1552 FILLER_20_51
*1553 FILLER_20_55
*1554 FILLER_20_72
*1555 FILLER_20_78
*1556 FILLER_20_8
*1557 FILLER_20_82
*1558 FILLER_20_85
*1559 FILLER_21_110
*1560 FILLER_21_113
*1561 FILLER_21_131
*1562 FILLER_21_14
*1563 FILLER_21_140
*1564 FILLER_21_148
*1565 FILLER_21_165
*1566 FILLER_21_169
*1567 FILLER_21_174
*1568 FILLER_21_186
*1569 FILLER_21_194
*1570 FILLER_21_203
*1571 FILLER_21_211
*1572 FILLER_21_223
*1573 FILLER_21_225
*1574 FILLER_21_231
*1575 FILLER_21_242
*1576 FILLER_21_253
*1577 FILLER_21_26
*1578 FILLER_21_265
*1579 FILLER_21_271
*1580 FILLER_21_279
*1581 FILLER_21_281
*1582 FILLER_21_291
*1583 FILLER_21_3
*1584 FILLER_21_34
*1585 FILLER_21_39
*1586 FILLER_21_54
*1587 FILLER_21_57
*1588 FILLER_21_62
*1589 FILLER_21_68
*1590 FILLER_21_86
*1591 FILLER_21_9
*1592 FILLER_22_106
*1593 FILLER_22_12
*1594 FILLER_22_125
*1595 FILLER_22_132
*1596 FILLER_22_141
*1597 FILLER_22_146
*1598 FILLER_22_154
*1599 FILLER_22_172
*1600 FILLER_22_182
*1601 FILLER_22_19
*1602 FILLER_22_194
*1603 FILLER_22_197
*1604 FILLER_22_209
*1605 FILLER_22_221
*1606 FILLER_22_233
*1607 FILLER_22_245
*1608 FILLER_22_251
*1609 FILLER_22_253
*1610 FILLER_22_26
*1611 FILLER_22_268
*1612 FILLER_22_276
*1613 FILLER_22_288
*1614 FILLER_22_29
*1615 FILLER_22_295
*1616 FILLER_22_3
*1617 FILLER_22_48
*1618 FILLER_22_55
*1619 FILLER_22_61
*1620 FILLER_22_79
*1621 FILLER_22_83
*1622 FILLER_22_85
*1623 FILLER_22_98
*1624 FILLER_23_102
*1625 FILLER_23_106
*1626 FILLER_23_110
*1627 FILLER_23_113
*1628 FILLER_23_126
*1629 FILLER_23_13
*1630 FILLER_23_149
*1631 FILLER_23_161
*1632 FILLER_23_167
*1633 FILLER_23_169
*1634 FILLER_23_174
*1635 FILLER_23_181
*1636 FILLER_23_189
*1637 FILLER_23_196
*1638 FILLER_23_20
*1639 FILLER_23_208
*1640 FILLER_23_222
*1641 FILLER_23_225
*1642 FILLER_23_237
*1643 FILLER_23_245
*1644 FILLER_23_25
*1645 FILLER_23_256
*1646 FILLER_23_268
*1647 FILLER_23_281
*1648 FILLER_23_288
*1649 FILLER_23_29
*1650 FILLER_23_297
*1651 FILLER_23_3
*1652 FILLER_23_48
*1653 FILLER_23_57
*1654 FILLER_23_66
*1655 FILLER_23_73
*1656 FILLER_23_80
*1657 FILLER_23_84
*1658 FILLER_23_9
*1659 FILLER_24_104
*1660 FILLER_24_12
*1661 FILLER_24_126
*1662 FILLER_24_132
*1663 FILLER_24_136
*1664 FILLER_24_141
*1665 FILLER_24_153
*1666 FILLER_24_172
*1667 FILLER_24_179
*1668 FILLER_24_19
*1669 FILLER_24_191
*1670 FILLER_24_195
*1671 FILLER_24_197
*1672 FILLER_24_205
*1673 FILLER_24_217
*1674 FILLER_24_229
*1675 FILLER_24_236
*1676 FILLER_24_243
*1677 FILLER_24_251
*1678 FILLER_24_253
*1679 FILLER_24_26
*1680 FILLER_24_265
*1681 FILLER_24_271
*1682 FILLER_24_283
*1683 FILLER_24_29
*1684 FILLER_24_295
*1685 FILLER_24_3
*1686 FILLER_24_47
*1687 FILLER_24_54
*1688 FILLER_24_61
*1689 FILLER_24_70
*1690 FILLER_24_78
*1691 FILLER_24_82
*1692 FILLER_24_85
*1693 FILLER_25_106
*1694 FILLER_25_110
*1695 FILLER_25_113
*1696 FILLER_25_133
*1697 FILLER_25_145
*1698 FILLER_25_16
*1699 FILLER_25_164
*1700 FILLER_25_169
*1701 FILLER_25_181