*SPEF "ieee 1481-1999"
*DESIGN "tt2_tholin_diceroll"
*DATE "11:11:11 Fri 11 11, 1111"
*VENDOR "OpenRCX"
*PROGRAM "Parallel Extraction"
*VERSION "1.0"
*DESIGN_FLOW "NAME_SCOPE LOCAL" "PIN_CAP NONE"
*DIVIDER /
*DELIMITER :
*BUS_DELIMITER []
*T_UNIT 1 NS
*C_UNIT 1 PF
*R_UNIT 1 OHM
*L_UNIT 1 HENRY

*NAME_MAP
*1 io_in[0]
*2 io_in[1]
*3 io_in[2]
*4 io_in[3]
*5 io_in[4]
*6 io_in[5]
*7 io_in[6]
*8 io_in[7]
*9 io_out[0]
*10 io_out[1]
*11 io_out[2]
*12 io_out[3]
*13 io_out[4]
*14 io_out[5]
*15 io_out[6]
*16 io_out[7]
*19 _000_
*20 _001_
*21 _002_
*22 _003_
*23 _004_
*24 _005_
*25 _006_
*26 _007_
*27 _008_
*28 _009_
*29 _010_
*30 _011_
*31 _012_
*32 _013_
*33 _014_
*34 _015_
*35 _016_
*36 _017_
*37 _018_
*38 _019_
*39 _020_
*40 _021_
*41 _022_
*42 _023_
*43 _024_
*44 _025_
*45 _026_
*46 _027_
*47 _028_
*48 _029_
*49 _030_
*50 _031_
*51 _032_
*52 _033_
*53 _034_
*54 _035_
*55 _036_
*56 _037_
*57 _038_
*58 _039_
*59 _040_
*60 _041_
*61 _042_
*62 _043_
*63 _044_
*64 _045_
*65 _046_
*66 _047_
*67 _048_
*68 _049_
*69 _050_
*70 _051_
*71 _052_
*72 _053_
*73 _054_
*74 _055_
*75 _056_
*76 _057_
*77 _058_
*78 _059_
*79 _060_
*80 _061_
*81 _062_
*82 _063_
*83 _064_
*84 _065_
*85 _066_
*86 _067_
*87 _068_
*88 _069_
*89 _070_
*90 _071_
*91 _072_
*92 _073_
*93 _074_
*94 _075_
*95 _076_
*96 _077_
*97 _078_
*98 _079_
*99 _080_
*100 _081_
*101 _082_
*102 _083_
*103 _084_
*104 _085_
*105 _086_
*106 _087_
*107 _088_
*108 _089_
*109 _090_
*110 _091_
*111 _092_
*112 _093_
*113 _094_
*114 _095_
*115 _096_
*116 _097_
*117 _098_
*118 _099_
*119 _100_
*120 _101_
*121 _102_
*122 _103_
*123 _104_
*124 _105_
*125 _106_
*126 _107_
*127 _108_
*128 _109_
*129 _110_
*130 _111_
*131 _112_
*132 _113_
*133 _114_
*134 _115_
*135 _116_
*136 _117_
*137 _118_
*138 _119_
*139 _120_
*140 _121_
*141 _122_
*142 _123_
*143 _124_
*144 _125_
*145 _126_
*146 _127_
*147 _128_
*148 _129_
*149 _130_
*150 _131_
*151 _132_
*152 _133_
*153 _134_
*154 _135_
*155 _136_
*156 _137_
*157 _138_
*158 _139_
*159 _140_
*160 _141_
*161 _142_
*162 _143_
*163 _144_
*164 _145_
*165 _146_
*166 _147_
*167 _148_
*168 _149_
*169 _150_
*170 _151_
*171 _152_
*172 _153_
*173 _154_
*174 _155_
*175 clknet_0_io_in[0]
*176 clknet_2_0__leaf_io_in[0]
*177 clknet_2_1__leaf_io_in[0]
*178 clknet_2_2__leaf_io_in[0]
*179 clknet_2_3__leaf_io_in[0]
*180 dice\.bcd\[0\]
*181 dice\.bcd\[1\]
*182 dice\.bcd\[2\]
*183 dice\.clkdiv\[0\]
*184 dice\.clkdiv\[1\]
*185 dice\.clkdiv\[2\]
*186 dice\.clkdiv\[3\]
*187 dice\.clkdiv\[4\]
*188 dice\.clkdiv\[5\]
*189 dice\.clkdiv\[6\]
*190 dice\.clkdiv\[7\]
*191 dice\.counter\[0\]
*192 dice\.counter\[1\]
*193 dice\.counter\[2\]
*194 dice\.counter\[3\]
*195 dice\.counter\[4\]
*196 dice\.counter\[5\]
*197 dice\.counter\[6\]
*198 dice\.counter\[7\]
*199 dice\.dp
*200 dice\.lfsr\[0\]
*201 dice\.lfsr\[10\]
*202 dice\.lfsr\[11\]
*203 dice\.lfsr\[12\]
*204 dice\.lfsr\[13\]
*205 dice\.lfsr\[14\]
*206 dice\.lfsr\[1\]
*207 dice\.lfsr\[2\]
*208 dice\.lfsr\[3\]
*209 dice\.lfsr\[4\]
*210 dice\.lfsr\[5\]
*211 dice\.lfsr\[6\]
*212 dice\.lfsr\[7\]
*213 dice\.lfsr\[8\]
*214 dice\.lfsr\[9\]
*215 net1
*216 net2
*217 FILLER_0_103
*218 FILLER_0_111
*219 FILLER_0_113
*220 FILLER_0_125
*221 FILLER_0_137
*222 FILLER_0_141
*223 FILLER_0_153
*224 FILLER_0_165
*225 FILLER_0_169
*226 FILLER_0_181
*227 FILLER_0_193
*228 FILLER_0_197
*229 FILLER_0_209
*230 FILLER_0_221
*231 FILLER_0_225
*232 FILLER_0_237
*233 FILLER_0_249
*234 FILLER_0_253
*235 FILLER_0_26
*236 FILLER_0_265
*237 FILLER_0_277
*238 FILLER_0_281
*239 FILLER_0_29
*240 FILLER_0_293
*241 FILLER_0_3
*242 FILLER_0_48
*243 FILLER_0_57
*244 FILLER_0_75
*245 FILLER_0_83
*246 FILLER_0_85
*247 FILLER_0_9
*248 FILLER_10_109
*249 FILLER_10_121
*250 FILLER_10_133
*251 FILLER_10_139
*252 FILLER_10_141
*253 FILLER_10_153
*254 FILLER_10_165
*255 FILLER_10_177
*256 FILLER_10_189
*257 FILLER_10_195
*258 FILLER_10_197
*259 FILLER_10_209
*260 FILLER_10_21
*261 FILLER_10_221
*262 FILLER_10_233
*263 FILLER_10_245
*264 FILLER_10_251
*265 FILLER_10_253
*266 FILLER_10_265
*267 FILLER_10_27
*268 FILLER_10_277
*269 FILLER_10_289
*270 FILLER_10_29
*271 FILLER_10_297
*272 FILLER_10_3
*273 FILLER_10_53
*274 FILLER_10_74
*275 FILLER_10_82
*276 FILLER_10_85
*277 FILLER_10_94
*278 FILLER_11_107
*279 FILLER_11_111
*280 FILLER_11_113
*281 FILLER_11_125
*282 FILLER_11_133
*283 FILLER_11_141
*284 FILLER_11_15
*285 FILLER_11_153
*286 FILLER_11_165
*287 FILLER_11_169
*288 FILLER_11_181
*289 FILLER_11_193
*290 FILLER_11_205
*291 FILLER_11_217
*292 FILLER_11_223
*293 FILLER_11_225
*294 FILLER_11_237
*295 FILLER_11_249
*296 FILLER_11_261
*297 FILLER_11_273
*298 FILLER_11_279
*299 FILLER_11_281
*300 FILLER_11_293
*301 FILLER_11_3
*302 FILLER_11_35
*303 FILLER_11_47
*304 FILLER_11_55
*305 FILLER_11_57
*306 FILLER_11_75
*307 FILLER_11_79
*308 FILLER_11_83
*309 FILLER_11_95
*310 FILLER_12_102
*311 FILLER_12_114
*312 FILLER_12_127
*313 FILLER_12_139
*314 FILLER_12_141
*315 FILLER_12_153
*316 FILLER_12_165
*317 FILLER_12_177
*318 FILLER_12_189
*319 FILLER_12_195
*320 FILLER_12_197
*321 FILLER_12_209
*322 FILLER_12_221
*323 FILLER_12_233
*324 FILLER_12_245
*325 FILLER_12_251
*326 FILLER_12_253
*327 FILLER_12_26
*328 FILLER_12_265
*329 FILLER_12_277
*330 FILLER_12_289
*331 FILLER_12_29
*332 FILLER_12_297
*333 FILLER_12_3
*334 FILLER_12_41
*335 FILLER_12_53
*336 FILLER_12_72
*337 FILLER_12_85
*338 FILLER_12_9
*339 FILLER_12_90
*340 FILLER_13_104
*341 FILLER_13_113
*342 FILLER_13_125
*343 FILLER_13_132
*344 FILLER_13_144
*345 FILLER_13_15
*346 FILLER_13_156
*347 FILLER_13_169
*348 FILLER_13_181
*349 FILLER_13_193
*350 FILLER_13_205
*351 FILLER_13_217
*352 FILLER_13_223
*353 FILLER_13_225
*354 FILLER_13_237
*355 FILLER_13_249
*356 FILLER_13_261
*357 FILLER_13_273
*358 FILLER_13_279
*359 FILLER_13_281
*360 FILLER_13_293
*361 FILLER_13_3
*362 FILLER_13_33
*363 FILLER_13_54
*364 FILLER_13_57
*365 FILLER_13_76
*366 FILLER_13_82
*367 FILLER_13_91
*368 FILLER_13_97
*369 FILLER_14_108
*370 FILLER_14_120
*371 FILLER_14_132
*372 FILLER_14_141
*373 FILLER_14_147
*374 FILLER_14_160
*375 FILLER_14_172
*376 FILLER_14_184
*377 FILLER_14_197
*378 FILLER_14_209
*379 FILLER_14_221
*380 FILLER_14_233
*381 FILLER_14_24
*382 FILLER_14_245
*383 FILLER_14_251
*384 FILLER_14_253
*385 FILLER_14_265
*386 FILLER_14_277
*387 FILLER_14_289
*388 FILLER_14_29
*389 FILLER_14_297
*390 FILLER_14_3
*391 FILLER_14_47
*392 FILLER_14_55
*393 FILLER_14_72
*394 FILLER_14_85
*395 FILLER_14_99
*396 FILLER_15_103
*397 FILLER_15_111
*398 FILLER_15_113
*399 FILLER_15_125
*400 FILLER_15_129
*401 FILLER_15_135
*402 FILLER_15_147
*403 FILLER_15_159
*404 FILLER_15_167
*405 FILLER_15_169
*406 FILLER_15_181
*407 FILLER_15_193
*408 FILLER_15_205
*409 FILLER_15_21
*410 FILLER_15_217
*411 FILLER_15_223
*412 FILLER_15_225
*413 FILLER_15_237
*414 FILLER_15_249
*415 FILLER_15_261
*416 FILLER_15_273
*417 FILLER_15_279
*418 FILLER_15_281
*419 FILLER_15_293
*420 FILLER_15_3
*421 FILLER_15_43
*422 FILLER_15_55
*423 FILLER_15_57
*424 FILLER_15_69
*425 FILLER_15_75
*426 FILLER_15_84
*427 FILLER_15_91
*428 FILLER_16_10
*429 FILLER_16_102
*430 FILLER_16_114
*431 FILLER_16_126
*432 FILLER_16_138
*433 FILLER_16_141
*434 FILLER_16_153
*435 FILLER_16_165
*436 FILLER_16_177
*437 FILLER_16_186
*438 FILLER_16_19
*439 FILLER_16_194
*440 FILLER_16_197
*441 FILLER_16_209
*442 FILLER_16_221
*443 FILLER_16_233
*444 FILLER_16_245
*445 FILLER_16_251
*446 FILLER_16_253
*447 FILLER_16_26
*448 FILLER_16_265
*449 FILLER_16_277
*450 FILLER_16_289
*451 FILLER_16_29
*452 FILLER_16_297
*453 FILLER_16_3
*454 FILLER_16_36
*455 FILLER_16_51
*456 FILLER_16_57
*457 FILLER_16_62
*458 FILLER_16_70
*459 FILLER_16_76
*460 FILLER_16_85
*461 FILLER_16_94
*462 FILLER_17_109
*463 FILLER_17_113
*464 FILLER_17_120
*465 FILLER_17_13
*466 FILLER_17_133
*467 FILLER_17_145
*468 FILLER_17_157
*469 FILLER_17_165
*470 FILLER_17_169
*471 FILLER_17_181
*472 FILLER_17_19
*473 FILLER_17_193
*474 FILLER_17_205
*475 FILLER_17_217
*476 FILLER_17_223
*477 FILLER_17_225
*478 FILLER_17_237
*479 FILLER_17_249
*480 FILLER_17_26
*481 FILLER_17_261
*482 FILLER_17_273
*483 FILLER_17_279
*484 FILLER_17_281
*485 FILLER_17_293
*486 FILLER_17_3
*487 FILLER_17_36
*488 FILLER_17_46
*489 FILLER_17_54
*490 FILLER_17_57
*491 FILLER_17_69
*492 FILLER_17_79
*493 FILLER_17_86
*494 FILLER_17_98
*495 FILLER_18_10
*496 FILLER_18_103
*497 FILLER_18_115
*498 FILLER_18_123
*499 FILLER_18_132
*500 FILLER_18_141
*501 FILLER_18_150
*502 FILLER_18_162
*503 FILLER_18_174
*504 FILLER_18_186
*505 FILLER_18_194
*506 FILLER_18_197
*507 FILLER_18_20
*508 FILLER_18_209
*509 FILLER_18_221
*510 FILLER_18_233
*511 FILLER_18_245
*512 FILLER_18_251
*513 FILLER_18_253
*514 FILLER_18_265
*515 FILLER_18_277
*516 FILLER_18_289
*517 FILLER_18_29
*518 FILLER_18_297
*519 FILLER_18_3
*520 FILLER_18_35
*521 FILLER_18_42
*522 FILLER_18_51
*523 FILLER_18_59
*524 FILLER_18_71
*525 FILLER_18_83
*526 FILLER_18_85
*527 FILLER_18_94
*528 FILLER_19_10
*529 FILLER_19_110
*530 FILLER_19_113
*531 FILLER_19_124
*532 FILLER_19_136
*533 FILLER_19_148
*534 FILLER_19_160
*535 FILLER_19_169
*536 FILLER_19_181
*537 FILLER_19_193
*538 FILLER_19_205
*539 FILLER_19_21
*540 FILLER_19_217
*541 FILLER_19_223
*542 FILLER_19_225
*543 FILLER_19_237
*544 FILLER_19_249
*545 FILLER_19_261
*546 FILLER_19_273
*547 FILLER_19_279
*548 FILLER_19_281
*549 FILLER_19_29
*550 FILLER_19_293
*551 FILLER_19_3
*552 FILLER_19_39
*553 FILLER_19_43
*554 FILLER_19_49
*555 FILLER_19_55
*556 FILLER_19_57
*557 FILLER_19_65
*558 FILLER_19_77
*559 FILLER_19_91
*560 FILLER_19_98
*561 FILLER_1_108
*562 FILLER_1_113
*563 FILLER_1_125
*564 FILLER_1_137
*565 FILLER_1_149
*566 FILLER_1_15
*567 FILLER_1_161
*568 FILLER_1_167
*569 FILLER_1_169
*570 FILLER_1_181
*571 FILLER_1_193
*572 FILLER_1_205
*573 FILLER_1_217
*574 FILLER_1_223
*575 FILLER_1_225
*576 FILLER_1_237
*577 FILLER_1_249
*578 FILLER_1_261
*579 FILLER_1_273
*580 FILLER_1_279
*581 FILLER_1_281
*582 FILLER_1_293
*583 FILLER_1_3
*584 FILLER_1_32
*585 FILLER_1_53
*586 FILLER_1_57
*587 FILLER_1_76
*588 FILLER_1_96
*589 FILLER_20_10
*590 FILLER_20_105
*591 FILLER_20_117
*592 FILLER_20_129
*593 FILLER_20_137
*594 FILLER_20_141
*595 FILLER_20_153
*596 FILLER_20_165
*597 FILLER_20_177
*598 FILLER_20_189
*599 FILLER_20_19
*600 FILLER_20_195
*601 FILLER_20_197
*602 FILLER_20_209
*603 FILLER_20_221
*604 FILLER_20_233
*605 FILLER_20_245
*606 FILLER_20_251
*607 FILLER_20_253
*608 FILLER_20_26
*609 FILLER_20_265
*610 FILLER_20_277
*611 FILLER_20_289
*612 FILLER_20_29
*613 FILLER_20_297
*614 FILLER_20_3
*615 FILLER_20_42
*616 FILLER_20_52
*617 FILLER_20_58
*618 FILLER_20_63
*619 FILLER_20_72
*620 FILLER_20_85
*621 FILLER_20_93
*622 FILLER_21_103
*623 FILLER_21_11
*624 FILLER_21_111
*625 FILLER_21_113
*626 FILLER_21_125
*627 FILLER_21_137
*628 FILLER_21_149
*629 FILLER_21_161
*630 FILLER_21_167
*631 FILLER_21_169
*632 FILLER_21_181
*633 FILLER_21_193
*634 FILLER_21_205
*635 FILLER_21_217
*636 FILLER_21_223
*637 FILLER_21_225
*638 FILLER_21_237
*639 FILLER_21_249
*640 FILLER_21_261
*641 FILLER_21_273
*642 FILLER_21_279
*643 FILLER_21_281
*644 FILLER_21_29
*645 FILLER_21_293
*646 FILLER_21_3
*647 FILLER_21_37
*648 FILLER_21_44
*649 FILLER_21_54
*650 FILLER_21_57
*651 FILLER_21_63
*652 FILLER_21_68
*653 FILLER_21_80
*654 FILLER_21_91
*655 FILLER_22_10
*656 FILLER_22_109
*657 FILLER_22_121
*658 FILLER_22_125
*659 FILLER_22_131
*660 FILLER_22_139
*661 FILLER_22_141
*662 FILLER_22_153
*663 FILLER_22_165
*664 FILLER_22_177
*665 FILLER_22_189
*666 FILLER_22_195
*667 FILLER_22_197
*668 FILLER_22_20
*669 FILLER_22_209
*670 FILLER_22_221
*671 FILLER_22_233
*672 FILLER_22_245
*673 FILLER_22_251
*674 FILLER_22_253
*675 FILLER_22_265
*676 FILLER_22_277
*677 FILLER_22_289
*678 FILLER_22_29
*679 FILLER_22_297
*680 FILLER_22_3
*681 FILLER_22_36
*682 FILLER_22_43
*683 FILLER_22_51
*684 FILLER_22_59
*685 FILLER_22_71
*686 FILLER_22_75
*687 FILLER_22_82
*688 FILLER_22_85
*689 FILLER_22_97
*690 FILLER_23_105
*691 FILLER_23_11
*692 FILLER_23_111
*693 FILLER_23_113
*694 FILLER_23_118
*695 FILLER_23_130
*696 FILLER_23_142
*697 FILLER_23_154
*698 FILLER_23_166
*699 FILLER_23_169
*700 FILLER_23_181
*701 FILLER_23_193
*702 FILLER_23_205
*703 FILLER_23_21
*704 FILLER_23_217
*705 FILLER_23_223
*706 FILLER_23_225
*707 FILLER_23_237
*708 FILLER_23_249
*709 FILLER_23_261
*710 FILLER_23_273
*711 FILLER_23_279
*712 FILLER_23_281
*713 FILLER_23_293
*714 FILLER_23_3
*715 FILLER_23_31
*716 FILLER_23_40
*717 FILLER_23_47
*718 FILLER_23_54
*719 FILLER_23_57
*720 FILLER_23_65
*721 FILLER_23_77
*722 FILLER_23_89
*723 FILLER_23_95
*724 FILLER_24_112
*725 FILLER_24_126
*726 FILLER_24_138
*727 FILLER_24_14
*728 FILLER_24_141
*729 FILLER_24_153
*730 FILLER_24_165
*731 FILLER_24_177
*732 FILLER_24_189
*733 FILLER_24_195
*734 FILLER_24_197
*735 FILLER_24_20
*736 FILLER_24_209
*737 FILLER_24_221
*738 FILLER_24_233
*739 FILLER_24_245
*740 FILLER_24_251
*741 FILLER_24_253
*742 FILLER_24_26
*743 FILLER_24_265
*744 FILLER_24_277
*745 FILLER_24_289
*746 FILLER_24_29
*747 FILLER_24_297
*748 FILLER_24_3
*749 FILLER_24_34
*750 FILLER_24_43
*751 FILLER_24_55
*752 FILLER_24_61
*753 FILLER_24_73
*754 FILLER_24_82
*755 FILLER_24_85
*756 FILLER_24_91
*757 FILLER_25_101
*758 FILLER_25_109
*759 FILLER_25_113
*760 FILLER_25_125
*761 FILLER_25_137
*762 FILLER_25_149
*763 FILLER_25_15
*764 FILLER_25_161
*765 FILLER_25_167
*766 FILLER_25_169
*767 FILLER_25_181
*768 FILLER_25_193
*769 FILLER_25_205
*770 FILLER_25_217
*771 FILLER_25_223
*772 FILLER_25_225
*773 FILLER_25_237
*774 FILLER_25_249
*775 FILLER_25_261
*776 FILLER_25_27
*777 FILLER_25_273
*778 FILLER_25_279
*779 FILLER_25_281
*780 FILLER_25_293
*781 FILLER_25_3
*782 FILLER_25_39
*783 FILLER_25_47
*784 FILLER_25_54
*785 FILLER_25_57
*786 FILLER_25_69
*787 FILLER_25_78
*788 FILLER_25_90
*789 FILLER_26_106
*790 FILLER_26_116
*791 FILLER_26_125
*792 FILLER_26_137
*793 FILLER_26_141
*794 FILLER_26_153
*795 FILLER_26_165
*796 FILLER_26_177
*797 FILLER_26_189
*798 FILLER_26_195
*799 FILLER_26_197
*800 FILLER_26_209
*801 FILLER_26_22
*802 FILLER_26_221
*803 FILLER_26_233
*804 FILLER_26_245
*805 FILLER_26_251
*806 FILLER_26_253
*807 FILLER_26_265
*808 FILLER_26_277
*809 FILLER_26_289
*810 FILLER_26_29
*811 FILLER_26_297
*812 FILLER_26_3
*813 FILLER_26_35
*814 FILLER_26_47
*815 FILLER_26_63
*816 FILLER_26_74
*817 FILLER_26_81
*818 FILLER_26_85
*819 FILLER_27_105
*820 FILLER_27_111
*821 FILLER_27_113
*822 FILLER_27_125
*823 FILLER_27_137
*824 FILLER_27_149
*825 FILLER_27_16
*826 FILLER_27_161
*827 FILLER_27_167
*828 FILLER_27_169
*829 FILLER_27_181
*830 FILLER_27_193
*831 FILLER_27_205
*832 FILLER_27_217
*833 FILLER_27_223
*834 FILLER_27_225
*835 FILLER_27_237
*836 FILLER_27_249
*837 FILLER_27_261
*838 FILLER_27_273
*839 FILLER_27_279
*840 FILLER_27_28
*841 FILLER_27_281
*842 FILLER_27_293
*843 FILLER_27_3
*844 FILLER_27_34
*845 FILLER_27_42
*846 FILLER_27_50
*847 FILLER_27_57
*848 FILLER_27_69
*849 FILLER_27_7
*850 FILLER_27_81
*851 FILLER_27_93
*852 FILLER_28_100
*853 FILLER_28_112
*854 FILLER_28_124
*855 FILLER_28_136
*856 FILLER_28_141
*857 FILLER_28_15
*858 FILLER_28_153
*859 FILLER_28_165
*860 FILLER_28_177
*861 FILLER_28_189
*862 FILLER_28_195
*863 FILLER_28_197
*864 FILLER_28_209
*865 FILLER_28_221
*866 FILLER_28_233
*867 FILLER_28_245
*868 FILLER_28_251
*869 FILLER_28_253
*870 FILLER_28_26
*871 FILLER_28_265
*872 FILLER_28_277
*873 FILLER_28_289
*874 FILLER_28_29
*875 FILLER_28_297
*876 FILLER_28_3
*877 FILLER_28_37
*878 FILLER_28_49
*879 FILLER_28_61
*880 FILLER_28_65
*881 FILLER_28_71
*882 FILLER_28_79
*883 FILLER_28_83
*884 FILLER_28_85
*885 FILLER_29_104
*886 FILLER_29_113
*887 FILLER_29_125
*888 FILLER_29_137
*889 FILLER_29_149
*890 FILLER_29_15
*891 FILLER_29_161
*892 FILLER_29_167
*893 FILLER_29_169
*894 FILLER_29_181
*895 FILLER_29_193
*896 FILLER_29_205
*897 FILLER_29_217
*898 FILLER_29_223
*899 FILLER_29_225
*900 FILLER_29_237
*901 FILLER_29_249
*902 FILLER_29_261
*903 FILLER_29_27
*904 FILLER_29_273
*905 FILLER_29_279
*906 FILLER_29_281
*907 FILLER_29_293
*908 FILLER_29_3
*909 FILLER_29_39
*910 FILLER_29_51
*911 FILLER_29_55
*912 FILLER_29_57
*913 FILLER_29_65
*914 FILLER_29_73
*915 FILLER_29_83
*916 FILLER_29_92
*917 FILLER_2_103
*918 FILLER_2_109
*919 FILLER_2_113
*920 FILLER_2_125
*921 FILLER_2_137
*922 FILLER_2_141
*923 FILLER_2_153
*924 FILLER_2_165
*925 FILLER_2_180
*926 FILLER_2_192
*927 FILLER_2_197
*928 FILLER_2_209
*929 FILLER_2_22
*930 FILLER_2_221
*931 FILLER_2_233
*932 FILLER_2_242
*933 FILLER_2_250
*934 FILLER_2_253
*935 FILLER_2_265
*936 FILLER_2_277
*937 FILLER_2_289
*938 FILLER_2_29
*939 FILLER_2_297
*940 FILLER_2_3
*941 FILLER_2_41
*942 FILLER_2_65
*943 FILLER_2_77
*944 FILLER_2_83
*945 FILLER_2_85
*946 FILLER_30_109
*947 FILLER_30_121
*948 FILLER_30_133
*949 FILLER_30_139
*950 FILLER_30_141
*951 FILLER_30_15
*952 FILLER_30_153
*953 FILLER_30_165
*954 FILLER_30_177
*955 FILLER_30_189
*956 FILLER_30_195
*957 FILLER_30_197
*958 FILLER_30_209
*959 FILLER_30_21
*960 FILLER_30_221
*961 FILLER_30_233
*962 FILLER_30_245
*963 FILLER_30_251
*964 FILLER_30_253
*965 FILLER_30_265
*966 FILLER_30_27
*967 FILLER_30_277
*968 FILLER_30_289
*969 FILLER_30_29
*970 FILLER_30_297
*971 FILLER_30_3
*972 FILLER_30_37
*973 FILLER_30_61
*974 FILLER_30_73
*975 FILLER_30_81
*976 FILLER_30_85
*977 FILLER_30_97
*978 FILLER_31_108
*979 FILLER_31_113
*980 FILLER_31_125
*981 FILLER_31_13
*982 FILLER_31_137
*983 FILLER_31_149
*984 FILLER_31_161
*985 FILLER_31_167
*986 FILLER_31_169
*987 FILLER_31_181
*988 FILLER_31_19
*989 FILLER_31_193
*990 FILLER_31_205
*991 FILLER_31_217
*992 FILLER_31_223
*993 FILLER_31_225
*994 FILLER_31_23
*995 FILLER_31_237
*996 FILLER_31_249
*997 FILLER_31_261
*998 FILLER_31_273
*999 FILLER_31_279
*1000 FILLER_31_281
*1001 FILLER_31_293
*1002 FILLER_31_3
*1003 FILLER_31_31
*1004 FILLER_31_41
*1005 FILLER_31_50
*1006 FILLER_31_57
*1007 FILLER_31_76
*1008 FILLER_31_85
*1009 FILLER_31_96
*1010 FILLER_32_109
*1011 FILLER_32_121
*1012 FILLER_32_133
*1013 FILLER_32_139
*1014 FILLER_32_141
*1015 FILLER_32_15
*1016 FILLER_32_153
*1017 FILLER_32_165
*1018 FILLER_32_177
*1019 FILLER_32_189
*1020 FILLER_32_195
*1021 FILLER_32_197
*1022 FILLER_32_209
*1023 FILLER_32_221
*1024 FILLER_32_233
*1025 FILLER_32_245
*1026 FILLER_32_251
*1027 FILLER_32_253
*1028 FILLER_32_265
*1029 FILLER_32_27
*1030 FILLER_32_277
*1031 FILLER_32_289
*1032 FILLER_32_29
*1033 FILLER_32_297
*1034 FILLER_32_3
*1035 FILLER_32_41
*1036 FILLER_32_53
*1037 FILLER_32_65
*1038 FILLER_32_77
*1039 FILLER_32_83
*1040 FILLER_32_85
*1041 FILLER_32_97
*1042 FILLER_33_104
*1043 FILLER_33_113
*1044 FILLER_33_125
*1045 FILLER_33_137
*1046 FILLER_33_149
*1047 FILLER_33_161
*1048 FILLER_33_167
*1049 FILLER_33_169
*1050 FILLER_33_181
*1051 FILLER_33_193
*1052 FILLER_33_205
*1053 FILLER_33_21
*1054 FILLER_33_217
*1055 FILLER_33_223
*1056 FILLER_33_225
*1057 FILLER_33_237
*1058 FILLER_33_249
*1059 FILLER_33_261
*1060 FILLER_33_273
*1061 FILLER_33_279
*1062 FILLER_33_281
*1063 FILLER_33_293
*1064 FILLER_33_3
*1065 FILLER_33_33
*1066 FILLER_33_54
*1067 FILLER_33_57
*1068 FILLER_33_66
*1069 FILLER_33_78
*1070 FILLER_33_9
*1071 FILLER_33_92
*1072 FILLER_34_109
*1073 FILLER_34_121
*1074 FILLER_34_133
*1075 FILLER_34_139
*1076 FILLER_34_141
*1077 FILLER_34_15
*1078 FILLER_34_153
*1079 FILLER_34_165
*1080 FILLER_34_177
*1081 FILLER_34_189
*1082 FILLER_34_19
*1083 FILLER_34_195
*1084 FILLER_34_197
*1085 FILLER_34_209
*1086 FILLER_34_221
*1087 FILLER_34_233
*1088 FILLER_34_245
*1089 FILLER_34_251
*1090 FILLER_34_253
*1091 FILLER_34_265
*1092 FILLER_34_27
*1093 FILLER_34_277
*1094 FILLER_34_289
*1095 FILLER_34_29
*1096 FILLER_34_297
*1097 FILLER_34_3
*1098 FILLER_34_41
*1099 FILLER_34_53
*1100 FILLER_34_61
*1101 FILLER_34_79
*1102 FILLER_34_83
*1103 FILLER_34_85
*1104 FILLER_34_97
*1105 FILLER_35_108
*1106 FILLER_35_113
*1107 FILLER_35_125
*1108 FILLER_35_137
*1109 FILLER_35_149
*1110 FILLER_35_16
*1111 FILLER_35_161
*1112 FILLER_35_167
*1113 FILLER_35_169
*1114 FILLER_35_181
*1115 FILLER_35_193
*1116 FILLER_35_205
*1117 FILLER_35_217
*1118 FILLER_35_223
*1119 FILLER_35_225
*1120 FILLER_35_237
*1121 FILLER_35_249
*1122 FILLER_35_261
*1123 FILLER_35_273
*1124 FILLER_35_279
*1125 FILLER_35_28
*1126 FILLER_35_281
*1127 FILLER_35_293
*1128 FILLER_35_3
*1129 FILLER_35_40
*1130 FILLER_35_52
*1131 FILLER_35_57
*1132 FILLER_35_65
*1133 FILLER_35_72
*1134 FILLER_35_84
*1135 FILLER_35_9
*1136 FILLER_35_96
*1137 FILLER_36_109
*1138 FILLER_36_121
*1139 FILLER_36_133
*1140 FILLER_36_139
*1141 FILLER_36_141
*1142 FILLER_36_15
*1143 FILLER_36_153
*1144 FILLER_36_165
*1145 FILLER_36_177
*1146 FILLER_36_189
*1147 FILLER_36_195
*1148 FILLER_36_197
*1149 FILLER_36_209
*1150 FILLER_36_221
*1151 FILLER_36_233
*1152 FILLER_36_245
*1153 FILLER_36_251
*1154 FILLER_36_253
*1155 FILLER_36_265
*1156 FILLER_36_27
*1157 FILLER_36_277
*1158 FILLER_36_289
*1159 FILLER_36_29
*1160 FILLER_36_297
*1161 FILLER_36_3
*1162 FILLER_36_41
*1163 FILLER_36_53
*1164 FILLER_36_65
*1165 FILLER_36_77
*1166 FILLER_36_83
*1167 FILLER_36_85
*1168 FILLER_36_97
*1169 FILLER_37_105
*1170 FILLER_37_111
*1171 FILLER_37_113
*1172 FILLER_37_125
*1173 FILLER_37_137
*1174 FILLER_37_149
*1175 FILLER_37_161
*1176 FILLER_37_167
*1177 FILLER_37_169
*1178 FILLER_37_181
*1179 FILLER_37_193
*1180 FILLER_37_205
*1181 FILLER_37_21
*1182 FILLER_37_217
*1183 FILLER_37_223
*1184 FILLER_37_225
*1185 FILLER_37_237
*1186 FILLER_37_249
*1187 FILLER_37_261
*1188 FILLER_37_273
*1189 FILLER_37_279
*1190 FILLER_37_281
*1191 FILLER_37_293
*1192 FILLER_37_3
*1193 FILLER_37_33
*1194 FILLER_37_45
*1195 FILLER_37_53
*1196 FILLER_37_57
*1197 FILLER_37_69
*1198 FILLER_37_81
*1199 FILLER_37_9
*1200 FILLER_37_93
*1201 FILLER_38_109
*1202 FILLER_38_121
*1203 FILLER_38_133
*1204 FILLER_38_139
*1205 FILLER_38_141
*1206 FILLER_38_15
*1207 FILLER_38_153
*1208 FILLER_38_165
*1209 FILLER_38_177
*1210 FILLER_38_189
*1211 FILLER_38_195
*1212 FILLER_38_197
*1213 FILLER_38_209
*1214 FILLER_38_221
*1215 FILLER_38_233
*1216 FILLER_38_245
*1217 FILLER_38_251
*1218 FILLER_38_253
*1219 FILLER_38_265
*1220 FILLER_38_27
*1221 FILLER_38_277
*1222 FILLER_38_289
*1223 FILLER_38_29
*1224 FILLER_38_297
*1225 FILLER_38_3
*1226 FILLER_38_41
*1227 FILLER_38_53
*1228 FILLER_38_59
*1229 FILLER_38_64
*1230 FILLER_38_76
*1231 FILLER_38_85
*1232 FILLER_38_97
*1233 FILLER_39_105
*1234 FILLER_39_111
*1235 FILLER_39_113
*1236 FILLER_39_125
*1237 FILLER_39_137
*1238 FILLER_39_149
*1239 FILLER_39_15
*1240 FILLER_39_161
*1241 FILLER_39_167
*1242 FILLER_39_169
*1243 FILLER_39_181
*1244 FILLER_39_193
*1245 FILLER_39_205
*1246 FILLER_39_21
*1247 FILLER_39_217
*1248 FILLER_39_223
*1249 FILLER_39_225
*1250 FILLER_39_237
*1251 FILLER_39_249
*1252 FILLER_39_261
*1253 FILLER_39_273
*1254 FILLER_39_279
*1255 FILLER_39_28
*1256 FILLER_39_281
*1257 FILLER_39_293
*1258 FILLER_39_3
*1259 FILLER_39_40
*1260 FILLER_39_52
*1261 FILLER_39_57
*1262 FILLER_39_69
*1263 FILLER_39_81
*1264 FILLER_39_93
*1265 FILLER_3_102
*1266 FILLER_3_11
*1267 FILLER_3_110
*1268 FILLER_3_113
*1269 FILLER_3_125
*1270 FILLER_3_137
*1271 FILLER_3_149
*1272 FILLER_3_15
*1273 FILLER_3_161
*1274 FILLER_3_167
*1275 FILLER_3_169
*1276 FILLER_3_181
*1277 FILLER_3_193
*1278 FILLER_3_205
*1279 FILLER_3_212
*1280 FILLER_3_225
*1281 FILLER_3_237
*1282 FILLER_3_249
*1283 FILLER_3_261
*1284 FILLER_3_273
*1285 FILLER_3_279
*1286 FILLER_3_281
*1287 FILLER_3_293
*1288 FILLER_3_3
*1289 FILLER_3_36
*1290 FILLER_3_48
*1291 FILLER_3_57
*1292 FILLER_3_75
*1293 FILLER_3_95
*1294 FILLER_40_109
*1295 FILLER_40_121
*1296 FILLER_40_133
*1297 FILLER_40_139
*1298 FILLER_40_141
*1299 FILLER_40_15
*1300 FILLER_40_153
*1301 FILLER_40_165
*1302 FILLER_40_177
*1303 FILLER_40_189
*1304 FILLER_40_195
*1305 FILLER_40_197
*1306 FILLER_40_209
*1307 FILLER_40_221
*1308 FILLER_40_233
*1309 FILLER_40_245
*1310 FILLER_40_251
*1311 FILLER_40_253
*1312 FILLER_40_265
*1313 FILLER_40_27
*1314 FILLER_40_277
*1315 FILLER_40_289
*1316 FILLER_40_29
*1317 FILLER_40_297
*1318 FILLER_40_3
*1319 FILLER_40_41
*1320 FILLER_40_53
*1321 FILLER_40_65
*1322 FILLER_40_77
*1323 FILLER_40_83
*1324 FILLER_40_85
*1325 FILLER_40_97
*1326 FILLER_41_103
*1327 FILLER_41_111
*1328 FILLER_41_113
*1329 FILLER_41_125
*1330 FILLER_41_137
*1331 FILLER_41_149
*1332 FILLER_41_15
*1333 FILLER_41_161
*1334 FILLER_41_167
*1335 FILLER_41_169
*1336 FILLER_41_181
*1337 FILLER_41_193
*1338 FILLER_41_205
*1339 FILLER_41_217
*1340 FILLER_41_223
*1341 FILLER_41_225
*1342 FILLER_41_237
*1343 FILLER_41_249
*1344 FILLER_41_261
*1345 FILLER_41_27
*1346 FILLER_41_273
*1347 FILLER_41_279
*1348 FILLER_41_281
*1349 FILLER_41_293
*1350 FILLER_41_3
*1351 FILLER_41_39
*1352 FILLER_41_51
*1353 FILLER_41_55
*1354 FILLER_41_57
*1355 FILLER_41_67
*1356 FILLER_41_79
*1357 FILLER_41_91
*1358 FILLER_42_109
*1359 FILLER_42_121
*1360 FILLER_42_13
*1361 FILLER_42_133
*1362 FILLER_42_139
*1363 FILLER_42_141
*1364 FILLER_42_153
*1365 FILLER_42_165
*1366 FILLER_42_177
*1367 FILLER_42_189
*1368 FILLER_42_195
*1369 FILLER_42_197
*1370 FILLER_42_209
*1371 FILLER_42_221
*1372 FILLER_42_233
*1373 FILLER_42_245
*1374 FILLER_42_25
*1375 FILLER_42_251
*1376 FILLER_42_253
*1377 FILLER_42_265
*1378 FILLER_42_277
*1379 FILLER_42_289
*1380 FILLER_42_29
*1381 FILLER_42_297
*1382 FILLER_42_3
*1383 FILLER_42_41
*1384 FILLER_42_53
*1385 FILLER_42_65
*1386 FILLER_42_77
*1387 FILLER_42_83
*1388 FILLER_42_85
*1389 FILLER_42_97
*1390 FILLER_43_105
*1391 FILLER_43_111
*1392 FILLER_43_113
*1393 FILLER_43_125
*1394 FILLER_43_137
*1395 FILLER_43_149
*1396 FILLER_43_15
*1397 FILLER_43_161
*1398 FILLER_43_167
*1399 FILLER_43_169
*1400 FILLER_43_181
*1401 FILLER_43_193
*1402 FILLER_43_205
*1403 FILLER_43_217
*1404 FILLER_43_223
*1405 FILLER_43_225
*1406 FILLER_43_237
*1407 FILLER_43_249
*1408 FILLER_43_261
*1409 FILLER_43_27
*1410 FILLER_43_273
*1411 FILLER_43_279
*1412 FILLER_43_281
*1413 FILLER_43_293
*1414 FILLER_43_3
*1415 FILLER_43_39
*1416 FILLER_43_51
*1417 FILLER_43_55
*1418 FILLER_43_57
*1419 FILLER_43_69
*1420 FILLER_43_81
*1421 FILLER_43_93
*1422 FILLER_44_109
*1423 FILLER_44_121
*1424 FILLER_44_133
*1425 FILLER_44_139
*1426 FILLER_44_141
*1427 FILLER_44_15
*1428 FILLER_44_153
*1429 FILLER_44_165
*1430 FILLER_44_177
*1431 FILLER_44_189
*1432 FILLER_44_195
*1433 FILLER_44_197
*1434 FILLER_44_209
*1435 FILLER_44_221
*1436 FILLER_44_233
*1437 FILLER_44_245
*1438 FILLER_44_251
*1439 FILLER_44_253
*1440 FILLER_44_265
*1441 FILLER_44_27
*1442 FILLER_44_277
*1443 FILLER_44_289
*1444 FILLER_44_29
*1445 FILLER_44_297
*1446 FILLER_44_3
*1447 FILLER_44_41
*1448 FILLER_44_53
*1449 FILLER_44_65
*1450 FILLER_44_77
*1451 FILLER_44_83
*1452 FILLER_44_85
*1453 FILLER_44_97
*1454 FILLER_45_105
*1455 FILLER_45_111
*1456 FILLER_45_113
*1457 FILLER_45_125
*1458 FILLER_45_137
*1459 FILLER_45_149
*1460 FILLER_45_15
*1461 FILLER_45_161
*1462 FILLER_45_167
*1463 FILLER_45_169
*1464 FILLER_45_181
*1465 FILLER_45_193
*1466 FILLER_45_205
*1467 FILLER_45_217
*1468 FILLER_45_223
*1469 FILLER_45_225
*1470 FILLER_45_237
*1471 FILLER_45_249
*1472 FILLER_45_261
*1473 FILLER_45_27
*1474 FILLER_45_273
*1475 FILLER_45_279
*1476 FILLER_45_281
*1477 FILLER_45_293
*1478 FILLER_45_3
*1479 FILLER_45_39
*1480 FILLER_45_51
*1481 FILLER_45_55
*1482 FILLER_45_57
*1483 FILLER_45_69
*1484 FILLER_45_81
*1485 FILLER_45_93
*1486 FILLER_46_109
*1487 FILLER_46_121
*1488 FILLER_46_133
*1489 FILLER_46_139
*1490 FILLER_46_141
*1491 FILLER_46_15
*1492 FILLER_46_153
*1493 FILLER_46_165
*1494 FILLER_46_177
*1495 FILLER_46_189
*1496 FILLER_46_195
*1497 FILLER_46_197
*1498 FILLER_46_209
*1499 FILLER_46_221
*1500 FILLER_46_233
*1501 FILLER_46_245
*1502 FILLER_46_251
*1503 FILLER_46_253
*1504 FILLER_46_265
*1505 FILLER_46_27
*1506 FILLER_46_277
*1507 FILLER_46_289
*1508 FILLER_46_29
*1509 FILLER_46_297
*1510 FILLER_46_3
*1511 FILLER_46_41
*1512 FILLER_46_53
*1513 FILLER_46_65
*1514 FILLER_46_77
*1515 FILLER_46_83
*1516 FILLER_46_85
*1517 FILLER_46_97
*1518 FILLER_47_105
*1519 FILLER_47_111
*1520 FILLER_47_113
*1521 FILLER_47_125
*1522 FILLER_47_137
*1523 FILLER_47_149
*1524 FILLER_47_15
*1525 FILLER_47_161
*1526 FILLER_47_167
*1527 FILLER_47_169
*1528 FILLER_47_181
*1529 FILLER_47_193
*1530 FILLER_47_205
*1531 FILLER_47_217
*1532 FILLER_47_223
*1533 FILLER_47_225
*1534 FILLER_47_237
*1535 FILLER_47_249
*1536 FILLER_47_261
*1537 FILLER_47_27
*1538 FILLER_47_273
*1539 FILLER_47_279
*1540 FILLER_47_281
*1541 FILLER_47_293
*1542 FILLER_47_3
*1543 FILLER_47_39
*1544 FILLER_47_51
*1545 FILLER_47_55
*1546 FILLER_47_57
*1547 FILLER_47_69
*1548 FILLER_47_81
*1549 FILLER_47_93
*1550 FILLER_48_109
*1551 FILLER_48_121
*1552 FILLER_48_133
*1553 FILLER_48_139
*1554 FILLER_48_141
*1555 FILLER_48_15
*1556 FILLER_48_153
*1557 FILLER_48_165
*1558 FILLER_48_177
*1559 FILLER_48_189
*1560 FILLER_48_195
*1561 FILLER_48_197
*1562 FILLER_48_209
*1563 FILLER_48_221
*1564 FILLER_48_233
*1565 FILLER_48_245
*1566 FILLER_48_251
*1567 FILLER_48_253
*1568 FILLER_48_265
*1569 FILLER_48_27
*1570 FILLER_48_277
*1571 FILLER_48_289
*1572 FILLER_48_29
*1573 FILLER_48_297
*1574 FILLER_48_3
*1575 FILLER_48_41
*1576 FILLER_48_53
*1577 FILLER_48_65
*1578 FILLER_48_77
*1579 FILLER_48_83
*1580 FILLER_48_85
*1581 FILLER_48_97
*1582 FILLER_49_105
*1583 FILLER_49_111
*1584 FILLER_49_113
*1585 FILLER_49_125
*1586 FILLER_49_137
*1587 FILLER_49_149
*1588 FILLER_49_15
*1589 FILLER_49_161
*1590 FILLER_49_167
*1591 FILLER_49_169
*1592 FILLER_49_181
*1593 FILLER_49_193
*1594 FILLER_49_205
*1595 FILLER_49_217
*1596 FILLER_49_223
*1597 FILLER_49_225
*1598 FILLER_49_237
*1599 FILLER_49_249
*1600 FILLER_49_261
*1601 FILLER_49_27
*1602 FILLER_49_273
*1603 FILLER_49_279
*1604 FILLER_49_281
*1605 FILLER_49_293
*1606 FILLER_49_3
*1607 FILLER_49_39
*1608 FILLER_49_51
*1609 FILLER_49_55
*1610 FILLER_49_57
*1611 FILLER_49_69
*1612 FILLER_49_81
*1613 FILLER_49_93
*1614 FILLER_4_103
*1615 FILLER_4_115
*1616 FILLER_4_127
*1617 FILLER_4_134
*1618 FILLER_4_141
*1619 FILLER_4_153
*1620 FILLER_4_165
*1621 FILLER_4_177
*1622 FILLER_4_189
*1623 FILLER_4_195
*1624 FILLER_4_197
*1625 FILLER_4_209
*1626 FILLER_4_221
*1627 FILLER_4_233
*1628 FILLER_4_245
*1629 FILLER_4_251
*1630 FILLER_4_253
*1631 FILLER_4_26
*1632 FILLER_4_265
*1633 FILLER_4_277