*SPEF "ieee 1481-1999"
*DESIGN "tt2_tholin_multiplexed_counter"
*DATE "11:11:11 Fri 11 11, 1111"
*VENDOR "OpenRCX"
*PROGRAM "Parallel Extraction"
*VERSION "1.0"
*DESIGN_FLOW "NAME_SCOPE LOCAL" "PIN_CAP NONE"
*DIVIDER /
*DELIMITER :
*BUS_DELIMITER []
*T_UNIT 1 NS
*C_UNIT 1 PF
*R_UNIT 1 OHM
*L_UNIT 1 HENRY

*NAME_MAP
*1 io_in[0]
*2 io_in[1]
*3 io_in[2]
*4 io_in[3]
*5 io_in[4]
*6 io_in[5]
*7 io_in[6]
*8 io_in[7]
*9 io_out[0]
*10 io_out[1]
*11 io_out[2]
*12 io_out[3]
*13 io_out[4]
*14 io_out[5]
*15 io_out[6]
*16 io_out[7]
*19 CIRCUIT_0\.A
*20 CIRCUIT_0\.B
*21 CIRCUIT_0\.C
*22 CIRCUIT_0\.D
*23 CIRCUIT_0\.E
*24 CIRCUIT_0\.F
*25 CIRCUIT_0\.G
*26 CIRCUIT_0\.MEMORY_2\.d
*27 CIRCUIT_0\.MEMORY_2\.s_currentState
*28 CIRCUIT_0\.MEMORY_3\.d
*29 CIRCUIT_0\.MEMORY_3\.s_currentState
*30 CIRCUIT_0\.MEMORY_4\.d
*31 CIRCUIT_0\.MEMORY_4\.s_currentState
*32 CIRCUIT_0\.MEMORY_6\.d
*33 CIRCUIT_0\.MEMORY_6\.s_currentState
*34 CIRCUIT_0\.MEMORY_7\.d
*35 CIRCUIT_0\.MEMORY_7\.s_currentState
*36 CIRCUIT_0\.custom_counter_10_1\.MEMORY_1\.d
*37 CIRCUIT_0\.custom_counter_10_1\.MEMORY_1\.s_currentState
*38 CIRCUIT_0\.custom_counter_10_1\.MEMORY_10\.clock
*39 CIRCUIT_0\.custom_counter_10_1\.MEMORY_10\.d
*40 CIRCUIT_0\.custom_counter_10_1\.MEMORY_10\.s_currentState
*41 CIRCUIT_0\.custom_counter_10_1\.MEMORY_2\.d
*42 CIRCUIT_0\.custom_counter_10_1\.MEMORY_2\.s_currentState
*43 CIRCUIT_0\.custom_counter_10_1\.MEMORY_3\.d
*44 CIRCUIT_0\.custom_counter_10_1\.MEMORY_3\.s_currentState
*45 CIRCUIT_0\.custom_counter_10_1\.MEMORY_4\.d
*46 CIRCUIT_0\.custom_counter_10_1\.MEMORY_4\.s_currentState
*47 CIRCUIT_0\.custom_counter_10_1\.MEMORY_5\.d
*48 CIRCUIT_0\.custom_counter_10_1\.MEMORY_5\.s_currentState
*49 CIRCUIT_0\.custom_counter_10_1\.MEMORY_6\.d
*50 CIRCUIT_0\.custom_counter_10_1\.MEMORY_6\.s_currentState
*51 CIRCUIT_0\.custom_counter_10_1\.MEMORY_7\.clock
*52 CIRCUIT_0\.custom_counter_10_1\.MEMORY_7\.d
*53 CIRCUIT_0\.custom_counter_10_1\.MEMORY_7\.s_currentState
*54 CIRCUIT_0\.custom_counter_10_1\.MEMORY_8\.s_currentState
*55 CIRCUIT_0\.custom_counter_10_1\.MEMORY_9\.s_currentState
*56 CIRCUIT_0\.full_counter_1\.ARITH_1\.aEqualsB
*57 CIRCUIT_0\.full_counter_1\.ARITH_2\.aEqualsB
*58 CIRCUIT_0\.full_counter_1\.MEMORY_3\.s_currentState
*59 CIRCUIT_0\.full_counter_1\.MEMORY_6\.s_currentState
*60 CIRCUIT_0\.full_counter_1\.custom_counter_4_1\.MEMORY_1\.d
*61 CIRCUIT_0\.full_counter_1\.custom_counter_4_1\.MEMORY_1\.s_currentState
*62 CIRCUIT_0\.full_counter_1\.custom_counter_4_1\.MEMORY_2\.d
*63 CIRCUIT_0\.full_counter_1\.custom_counter_4_1\.MEMORY_2\.s_currentState
*64 CIRCUIT_0\.full_counter_1\.custom_counter_4_1\.MEMORY_3\.d
*65 CIRCUIT_0\.full_counter_1\.custom_counter_4_1\.MEMORY_3\.s_currentState
*66 CIRCUIT_0\.full_counter_1\.custom_counter_4_1\.MEMORY_4\.d
*67 CIRCUIT_0\.full_counter_1\.custom_counter_4_1\.MEMORY_4\.s_currentState
*68 CIRCUIT_0\.full_counter_1\.custom_counter_4_2\.MEMORY_1\.d
*69 CIRCUIT_0\.full_counter_1\.custom_counter_4_2\.MEMORY_1\.s_currentState
*70 CIRCUIT_0\.full_counter_1\.custom_counter_4_2\.MEMORY_2\.d
*71 CIRCUIT_0\.full_counter_1\.custom_counter_4_2\.MEMORY_2\.s_currentState
*72 CIRCUIT_0\.full_counter_1\.custom_counter_4_2\.MEMORY_3\.d
*73 CIRCUIT_0\.full_counter_1\.custom_counter_4_2\.MEMORY_3\.s_currentState
*74 CIRCUIT_0\.full_counter_1\.custom_counter_4_2\.MEMORY_4\.d
*75 CIRCUIT_0\.full_counter_1\.custom_counter_4_2\.MEMORY_4\.s_currentState
*76 CIRCUIT_0\.full_counter_1\.seconds_counter_1\.ARITH_1\.aEqualsB
*77 CIRCUIT_0\.full_counter_1\.seconds_counter_1\.ARITH_4\.aEqualsB
*78 CIRCUIT_0\.full_counter_1\.seconds_counter_1\.MEMORY_5\.s_currentState
*79 CIRCUIT_0\.full_counter_1\.seconds_counter_1\.MEMORY_6\.s_currentState
*80 CIRCUIT_0\.full_counter_1\.seconds_counter_1\.custom_counter_4_1\.MEMORY_1\.d
*81 CIRCUIT_0\.full_counter_1\.seconds_counter_1\.custom_counter_4_1\.MEMORY_1\.s_currentState
*82 CIRCUIT_0\.full_counter_1\.seconds_counter_1\.custom_counter_4_1\.MEMORY_2\.d
*83 CIRCUIT_0\.full_counter_1\.seconds_counter_1\.custom_counter_4_1\.MEMORY_2\.s_currentState
*84 CIRCUIT_0\.full_counter_1\.seconds_counter_1\.custom_counter_4_1\.MEMORY_3\.d
*85 CIRCUIT_0\.full_counter_1\.seconds_counter_1\.custom_counter_4_1\.MEMORY_3\.s_currentState
*86 CIRCUIT_0\.full_counter_1\.seconds_counter_1\.custom_counter_4_1\.MEMORY_4\.d
*87 CIRCUIT_0\.full_counter_1\.seconds_counter_1\.custom_counter_4_1\.MEMORY_4\.s_currentState
*88 CIRCUIT_0\.full_counter_1\.seconds_counter_1\.custom_counter_4_2\.MEMORY_1\.d
*89 CIRCUIT_0\.full_counter_1\.seconds_counter_1\.custom_counter_4_2\.MEMORY_1\.s_currentState
*90 CIRCUIT_0\.full_counter_1\.seconds_counter_1\.custom_counter_4_2\.MEMORY_2\.d
*91 CIRCUIT_0\.full_counter_1\.seconds_counter_1\.custom_counter_4_2\.MEMORY_2\.s_currentState
*92 CIRCUIT_0\.full_counter_1\.seconds_counter_1\.custom_counter_4_2\.MEMORY_3\.d
*93 CIRCUIT_0\.full_counter_1\.seconds_counter_1\.custom_counter_4_2\.MEMORY_3\.s_currentState
*94 _002_
*95 _004_
*96 _006_
*97 _008_
*98 _010_
*99 _012_
*100 _014_
*101 _016_
*102 _018_
*103 _021_
*104 _022_
*105 _023_
*106 _024_
*107 _025_
*108 _026_
*109 _027_
*110 _028_
*111 _029_
*112 _030_
*113 _031_
*114 _032_
*115 _033_
*116 _036_
*117 _037_
*118 _038_
*119 _039_
*120 _040_
*121 _041_
*122 _042_
*123 _043_
*124 _044_
*125 _045_
*126 _046_
*127 _047_
*128 _048_
*129 _049_
*130 _051_
*131 _053_
*132 _055_
*133 _057_
*134 _059_
*135 _060_
*136 _061_
*137 _062_
*138 _063_
*139 _064_
*140 _065_
*141 _066_
*142 _067_
*143 _068_
*144 _069_
*145 _070_
*146 _071_
*147 _072_
*148 _073_
*149 _074_
*150 _075_
*151 _076_
*152 _077_
*153 _078_
*154 _079_
*155 _080_
*156 _081_
*157 _082_
*158 _083_
*159 _084_
*160 _085_
*161 _086_
*162 _087_
*163 clknet_0__059_
*164 clknet_0__060_
*165 clknet_0__061_
*166 clknet_0__062_
*167 clknet_0_io_in[0]
*168 clknet_1_0__leaf__059_
*169 clknet_1_0__leaf__060_
*170 clknet_1_0__leaf__061_
*171 clknet_1_0__leaf__062_
*172 clknet_1_0__leaf_io_in[0]
*173 clknet_1_1__leaf__059_
*174 clknet_1_1__leaf__060_
*175 clknet_1_1__leaf__061_
*176 clknet_1_1__leaf__062_
*177 clknet_1_1__leaf_io_in[0]
*178 net1
*179 net10
*180 net11
*181 net12
*182 net13
*183 net14
*184 net15
*185 net16
*186 net17
*187 net18
*188 net19
*189 net2
*190 net20
*191 net3
*192 net4
*193 net5
*194 net6
*195 net7
*196 net8
*197 net9
*198 FILLER_0_109
*199 FILLER_0_113
*200 FILLER_0_125
*201 FILLER_0_137
*202 FILLER_0_141
*203 FILLER_0_15
*204 FILLER_0_153
*205 FILLER_0_165
*206 FILLER_0_169
*207 FILLER_0_181
*208 FILLER_0_193
*209 FILLER_0_197
*210 FILLER_0_209
*211 FILLER_0_221
*212 FILLER_0_225
*213 FILLER_0_237
*214 FILLER_0_249
*215 FILLER_0_253
*216 FILLER_0_265
*217 FILLER_0_27
*218 FILLER_0_277
*219 FILLER_0_281
*220 FILLER_0_29
*221 FILLER_0_293
*222 FILLER_0_3
*223 FILLER_0_41
*224 FILLER_0_53
*225 FILLER_0_57
*226 FILLER_0_69
*227 FILLER_0_81
*228 FILLER_0_85
*229 FILLER_0_97
*230 FILLER_10_109
*231 FILLER_10_121
*232 FILLER_10_133
*233 FILLER_10_139
*234 FILLER_10_141
*235 FILLER_10_153
*236 FILLER_10_165
*237 FILLER_10_177
*238 FILLER_10_189
*239 FILLER_10_195
*240 FILLER_10_197
*241 FILLER_10_209
*242 FILLER_10_221
*243 FILLER_10_233
*244 FILLER_10_245
*245 FILLER_10_25
*246 FILLER_10_251
*247 FILLER_10_253
*248 FILLER_10_265
*249 FILLER_10_277
*250 FILLER_10_289
*251 FILLER_10_29
*252 FILLER_10_297
*253 FILLER_10_3
*254 FILLER_10_35
*255 FILLER_10_42
*256 FILLER_10_54
*257 FILLER_10_66
*258 FILLER_10_78
*259 FILLER_10_85
*260 FILLER_10_97
*261 FILLER_11_105
*262 FILLER_11_111
*263 FILLER_11_113
*264 FILLER_11_12
*265 FILLER_11_125
*266 FILLER_11_137
*267 FILLER_11_149
*268 FILLER_11_161
*269 FILLER_11_167
*270 FILLER_11_169
*271 FILLER_11_181
*272 FILLER_11_193
*273 FILLER_11_205
*274 FILLER_11_217
*275 FILLER_11_223
*276 FILLER_11_225
*277 FILLER_11_237
*278 FILLER_11_249
*279 FILLER_11_261
*280 FILLER_11_273
*281 FILLER_11_279
*282 FILLER_11_281
*283 FILLER_11_293
*284 FILLER_11_3
*285 FILLER_11_36
*286 FILLER_11_44
*287 FILLER_11_51
*288 FILLER_11_55
*289 FILLER_11_57
*290 FILLER_11_69
*291 FILLER_11_7
*292 FILLER_11_81
*293 FILLER_11_93
*294 FILLER_12_109
*295 FILLER_12_121
*296 FILLER_12_133
*297 FILLER_12_139
*298 FILLER_12_141
*299 FILLER_12_153
*300 FILLER_12_165
*301 FILLER_12_177
*302 FILLER_12_189
*303 FILLER_12_195
*304 FILLER_12_197
*305 FILLER_12_209
*306 FILLER_12_221
*307 FILLER_12_233
*308 FILLER_12_245
*309 FILLER_12_251
*310 FILLER_12_253
*311 FILLER_12_26
*312 FILLER_12_265
*313 FILLER_12_277
*314 FILLER_12_289
*315 FILLER_12_29
*316 FILLER_12_297
*317 FILLER_12_3
*318 FILLER_12_53
*319 FILLER_12_60
*320 FILLER_12_72
*321 FILLER_12_85
*322 FILLER_12_97
*323 FILLER_13_106
*324 FILLER_13_113
*325 FILLER_13_125
*326 FILLER_13_137
*327 FILLER_13_149
*328 FILLER_13_161
*329 FILLER_13_167
*330 FILLER_13_169
*331 FILLER_13_181
*332 FILLER_13_193
*333 FILLER_13_205
*334 FILLER_13_217
*335 FILLER_13_223
*336 FILLER_13_225
*337 FILLER_13_237
*338 FILLER_13_249
*339 FILLER_13_26
*340 FILLER_13_261
*341 FILLER_13_273
*342 FILLER_13_279
*343 FILLER_13_281
*344 FILLER_13_293
*345 FILLER_13_3
*346 FILLER_13_50
*347 FILLER_13_57
*348 FILLER_13_63
*349 FILLER_13_70
*350 FILLER_13_82
*351 FILLER_13_94
*352 FILLER_14_109
*353 FILLER_14_121
*354 FILLER_14_133
*355 FILLER_14_139
*356 FILLER_14_141
*357 FILLER_14_153
*358 FILLER_14_165
*359 FILLER_14_177
*360 FILLER_14_189
*361 FILLER_14_195
*362 FILLER_14_197
*363 FILLER_14_209
*364 FILLER_14_221
*365 FILLER_14_233
*366 FILLER_14_245
*367 FILLER_14_251
*368 FILLER_14_253
*369 FILLER_14_26
*370 FILLER_14_265
*371 FILLER_14_277
*372 FILLER_14_289
*373 FILLER_14_29
*374 FILLER_14_297
*375 FILLER_14_3
*376 FILLER_14_35
*377 FILLER_14_42
*378 FILLER_14_66
*379 FILLER_14_73
*380 FILLER_14_80
*381 FILLER_14_85
*382 FILLER_14_97
*383 FILLER_15_108
*384 FILLER_15_11
*385 FILLER_15_113
*386 FILLER_15_125
*387 FILLER_15_137
*388 FILLER_15_149
*389 FILLER_15_15
*390 FILLER_15_161
*391 FILLER_15_167
*392 FILLER_15_169
*393 FILLER_15_181
*394 FILLER_15_193
*395 FILLER_15_205
*396 FILLER_15_217
*397 FILLER_15_223
*398 FILLER_15_225
*399 FILLER_15_237
*400 FILLER_15_249
*401 FILLER_15_261
*402 FILLER_15_273
*403 FILLER_15_279
*404 FILLER_15_281
*405 FILLER_15_293
*406 FILLER_15_3
*407 FILLER_15_36
*408 FILLER_15_44
*409 FILLER_15_52
*410 FILLER_15_57
*411 FILLER_15_65
*412 FILLER_15_73
*413 FILLER_15_77
*414 FILLER_15_84
*415 FILLER_15_96
*416 FILLER_16_103
*417 FILLER_16_115
*418 FILLER_16_127
*419 FILLER_16_139
*420 FILLER_16_141
*421 FILLER_16_153
*422 FILLER_16_165
*423 FILLER_16_177
*424 FILLER_16_189
*425 FILLER_16_195
*426 FILLER_16_197
*427 FILLER_16_209
*428 FILLER_16_221
*429 FILLER_16_233
*430 FILLER_16_245
*431 FILLER_16_251
*432 FILLER_16_253
*433 FILLER_16_26
*434 FILLER_16_265
*435 FILLER_16_277
*436 FILLER_16_289
*437 FILLER_16_29
*438 FILLER_16_297
*439 FILLER_16_3
*440 FILLER_16_53
*441 FILLER_16_81
*442 FILLER_16_85
*443 FILLER_16_91
*444 FILLER_17_107
*445 FILLER_17_111
*446 FILLER_17_113
*447 FILLER_17_125
*448 FILLER_17_137
*449 FILLER_17_149
*450 FILLER_17_161
*451 FILLER_17_167
*452 FILLER_17_169
*453 FILLER_17_181
*454 FILLER_17_193
*455 FILLER_17_205
*456 FILLER_17_217
*457 FILLER_17_223
*458 FILLER_17_225
*459 FILLER_17_237
*460 FILLER_17_249
*461 FILLER_17_261
*462 FILLER_17_27
*463 FILLER_17_273
*464 FILLER_17_279
*465 FILLER_17_281
*466 FILLER_17_293
*467 FILLER_17_3
*468 FILLER_17_51
*469 FILLER_17_55
*470 FILLER_17_57
*471 FILLER_17_63
*472 FILLER_17_71
*473 FILLER_17_95
*474 FILLER_18_104
*475 FILLER_18_116
*476 FILLER_18_128
*477 FILLER_18_141
*478 FILLER_18_153
*479 FILLER_18_165
*480 FILLER_18_177
*481 FILLER_18_189
*482 FILLER_18_195
*483 FILLER_18_197
*484 FILLER_18_209
*485 FILLER_18_21
*486 FILLER_18_221
*487 FILLER_18_233
*488 FILLER_18_245
*489 FILLER_18_251
*490 FILLER_18_253
*491 FILLER_18_265
*492 FILLER_18_27
*493 FILLER_18_277
*494 FILLER_18_289
*495 FILLER_18_29
*496 FILLER_18_297
*497 FILLER_18_3
*498 FILLER_18_35
*499 FILLER_18_41
*500 FILLER_18_65
*501 FILLER_18_73
*502 FILLER_18_77
*503 FILLER_18_82
*504 FILLER_18_85
*505 FILLER_18_90
*506 FILLER_18_97
*507 FILLER_19_104
*508 FILLER_19_113
*509 FILLER_19_125
*510 FILLER_19_137
*511 FILLER_19_149
*512 FILLER_19_161
*513 FILLER_19_167
*514 FILLER_19_169
*515 FILLER_19_18
*516 FILLER_19_181
*517 FILLER_19_193
*518 FILLER_19_205
*519 FILLER_19_217
*520 FILLER_19_223
*521 FILLER_19_225
*522 FILLER_19_237
*523 FILLER_19_249
*524 FILLER_19_261
*525 FILLER_19_273
*526 FILLER_19_279
*527 FILLER_19_281
*528 FILLER_19_29
*529 FILLER_19_293
*530 FILLER_19_3
*531 FILLER_19_38
*532 FILLER_19_46
*533 FILLER_19_54
*534 FILLER_19_57
*535 FILLER_19_65
*536 FILLER_19_73
*537 FILLER_19_97
*538 FILLER_1_105
*539 FILLER_1_111
*540 FILLER_1_113
*541 FILLER_1_125
*542 FILLER_1_137
*543 FILLER_1_149
*544 FILLER_1_15
*545 FILLER_1_161
*546 FILLER_1_167
*547 FILLER_1_169
*548 FILLER_1_181
*549 FILLER_1_193
*550 FILLER_1_205
*551 FILLER_1_217
*552 FILLER_1_223
*553 FILLER_1_225
*554 FILLER_1_237
*555 FILLER_1_249
*556 FILLER_1_261
*557 FILLER_1_27
*558 FILLER_1_273
*559 FILLER_1_279
*560 FILLER_1_281
*561 FILLER_1_293
*562 FILLER_1_3
*563 FILLER_1_39
*564 FILLER_1_51
*565 FILLER_1_55
*566 FILLER_1_57
*567 FILLER_1_69
*568 FILLER_1_81
*569 FILLER_1_93
*570 FILLER_20_105
*571 FILLER_20_117
*572 FILLER_20_129
*573 FILLER_20_137
*574 FILLER_20_141
*575 FILLER_20_153
*576 FILLER_20_165
*577 FILLER_20_177
*578 FILLER_20_189
*579 FILLER_20_195
*580 FILLER_20_197
*581 FILLER_20_209
*582 FILLER_20_221
*583 FILLER_20_233
*584 FILLER_20_245
*585 FILLER_20_25
*586 FILLER_20_251
*587 FILLER_20_253
*588 FILLER_20_265
*589 FILLER_20_277
*590 FILLER_20_289
*591 FILLER_20_29
*592 FILLER_20_297
*593 FILLER_20_3
*594 FILLER_20_36
*595 FILLER_20_44
*596 FILLER_20_51
*597 FILLER_20_77
*598 FILLER_20_83
*599 FILLER_20_85
*600 FILLER_20_91
*601 FILLER_20_98
*602 FILLER_21_101
*603 FILLER_21_108
*604 FILLER_21_113
*605 FILLER_21_125
*606 FILLER_21_137
*607 FILLER_21_149
*608 FILLER_21_161
*609 FILLER_21_167
*610 FILLER_21_169
*611 FILLER_21_181
*612 FILLER_21_193
*613 FILLER_21_205
*614 FILLER_21_217
*615 FILLER_21_223
*616 FILLER_21_225
*617 FILLER_21_237
*618 FILLER_21_249
*619 FILLER_21_261
*620 FILLER_21_273
*621 FILLER_21_279
*622 FILLER_21_281
*623 FILLER_21_293
*624 FILLER_21_3
*625 FILLER_21_30
*626 FILLER_21_54
*627 FILLER_21_57
*628 FILLER_21_63
*629 FILLER_21_69
*630 FILLER_21_9
*631 FILLER_21_93
*632 FILLER_22_107
*633 FILLER_22_114
*634 FILLER_22_126
*635 FILLER_22_138
*636 FILLER_22_141
*637 FILLER_22_153
*638 FILLER_22_165
*639 FILLER_22_177
*640 FILLER_22_189
*641 FILLER_22_195
*642 FILLER_22_197
*643 FILLER_22_209
*644 FILLER_22_221
*645 FILLER_22_233
*646 FILLER_22_245
*647 FILLER_22_251
*648 FILLER_22_253
*649 FILLER_22_26
*650 FILLER_22_265
*651 FILLER_22_277
*652 FILLER_22_289
*653 FILLER_22_29
*654 FILLER_22_297
*655 FILLER_22_3
*656 FILLER_22_33
*657 FILLER_22_54
*658 FILLER_22_58
*659 FILLER_22_76
*660 FILLER_22_85
*661 FILLER_23_103
*662 FILLER_23_111
*663 FILLER_23_113
*664 FILLER_23_125
*665 FILLER_23_137
*666 FILLER_23_149
*667 FILLER_23_161
*668 FILLER_23_167
*669 FILLER_23_169
*670 FILLER_23_181
*671 FILLER_23_193
*672 FILLER_23_205
*673 FILLER_23_217
*674 FILLER_23_223
*675 FILLER_23_225
*676 FILLER_23_237
*677 FILLER_23_249
*678 FILLER_23_261
*679 FILLER_23_273
*680 FILLER_23_279
*681 FILLER_23_281
*682 FILLER_23_293
*683 FILLER_23_3
*684 FILLER_23_30
*685 FILLER_23_54
*686 FILLER_23_57
*687 FILLER_23_79
*688 FILLER_23_87
*689 FILLER_23_9
*690 FILLER_23_95
*691 FILLER_23_99
*692 FILLER_24_107
*693 FILLER_24_114
*694 FILLER_24_126
*695 FILLER_24_138
*696 FILLER_24_141
*697 FILLER_24_153
*698 FILLER_24_165
*699 FILLER_24_177
*700 FILLER_24_189
*701 FILLER_24_195
*702 FILLER_24_197
*703 FILLER_24_209
*704 FILLER_24_221
*705 FILLER_24_23
*706 FILLER_24_233
*707 FILLER_24_245
*708 FILLER_24_251
*709 FILLER_24_253
*710 FILLER_24_265
*711 FILLER_24_27
*712 FILLER_24_277
*713 FILLER_24_289
*714 FILLER_24_29
*715 FILLER_24_297
*716 FILLER_24_3
*717 FILLER_24_38
*718 FILLER_24_42
*719 FILLER_24_63
*720 FILLER_24_72
*721 FILLER_24_82
*722 FILLER_24_85
*723 FILLER_25_105
*724 FILLER_25_111
*725 FILLER_25_113
*726 FILLER_25_125
*727 FILLER_25_137
*728 FILLER_25_149
*729 FILLER_25_161
*730 FILLER_25_167
*731 FILLER_25_169
*732 FILLER_25_181
*733 FILLER_25_193
*734 FILLER_25_205
*735 FILLER_25_21
*736 FILLER_25_217
*737 FILLER_25_223
*738 FILLER_25_225
*739 FILLER_25_237
*740 FILLER_25_249
*741 FILLER_25_261
*742 FILLER_25_273
*743 FILLER_25_279
*744 FILLER_25_281
*745 FILLER_25_293
*746 FILLER_25_3
*747 FILLER_25_43
*748 FILLER_25_54
*749 FILLER_25_57
*750 FILLER_25_61
*751 FILLER_25_66
*752 FILLER_25_90
*753 FILLER_25_98
*754 FILLER_26_105
*755 FILLER_26_112
*756 FILLER_26_124
*757 FILLER_26_136
*758 FILLER_26_141
*759 FILLER_26_153
*760 FILLER_26_165
*761 FILLER_26_17
*762 FILLER_26_177
*763 FILLER_26_189
*764 FILLER_26_195
*765 FILLER_26_197
*766 FILLER_26_209
*767 FILLER_26_221
*768 FILLER_26_233
*769 FILLER_26_245
*770 FILLER_26_251
*771 FILLER_26_253
*772 FILLER_26_26
*773 FILLER_26_265
*774 FILLER_26_277
*775 FILLER_26_289
*776 FILLER_26_29
*777 FILLER_26_297
*778 FILLER_26_3
*779 FILLER_26_41
*780 FILLER_26_65
*781 FILLER_26_69
*782 FILLER_26_74
*783 FILLER_26_82
*784 FILLER_26_85
*785 FILLER_26_9
*786 FILLER_26_91
*787 FILLER_26_98
*788 FILLER_27_106
*789 FILLER_27_11
*790 FILLER_27_113
*791 FILLER_27_125
*792 FILLER_27_137
*793 FILLER_27_149
*794 FILLER_27_161
*795 FILLER_27_167
*796 FILLER_27_169
*797 FILLER_27_181
*798 FILLER_27_193
*799 FILLER_27_20
*800 FILLER_27_205
*801 FILLER_27_217
*802 FILLER_27_223
*803 FILLER_27_225
*804 FILLER_27_237
*805 FILLER_27_249
*806 FILLER_27_261
*807 FILLER_27_273
*808 FILLER_27_279
*809 FILLER_27_281
*810 FILLER_27_293
*811 FILLER_27_3
*812 FILLER_27_30
*813 FILLER_27_54
*814 FILLER_27_57
*815 FILLER_27_68
*816 FILLER_27_75
*817 FILLER_27_99
*818 FILLER_28_102
*819 FILLER_28_114
*820 FILLER_28_126
*821 FILLER_28_138
*822 FILLER_28_141
*823 FILLER_28_153
*824 FILLER_28_165
*825 FILLER_28_177
*826 FILLER_28_189
*827 FILLER_28_195
*828 FILLER_28_197
*829 FILLER_28_209
*830 FILLER_28_221
*831 FILLER_28_233
*832 FILLER_28_245
*833 FILLER_28_25
*834 FILLER_28_251
*835 FILLER_28_253
*836 FILLER_28_265
*837 FILLER_28_277
*838 FILLER_28_289
*839 FILLER_28_29
*840 FILLER_28_297
*841 FILLER_28_3
*842 FILLER_28_34
*843 FILLER_28_58
*844 FILLER_28_82
*845 FILLER_28_85
*846 FILLER_28_91
*847 FILLER_28_95
*848 FILLER_29_103
*849 FILLER_29_111
*850 FILLER_29_113
*851 FILLER_29_12
*852 FILLER_29_125
*853 FILLER_29_137
*854 FILLER_29_149
*855 FILLER_29_161
*856 FILLER_29_167
*857 FILLER_29_169
*858 FILLER_29_181
*859 FILLER_29_193
*860 FILLER_29_20
*861 FILLER_29_205
*862 FILLER_29_217
*863 FILLER_29_223
*864 FILLER_29_225
*865 FILLER_29_237
*866 FILLER_29_249
*867 FILLER_29_261
*868 FILLER_29_273
*869 FILLER_29_279
*870 FILLER_29_281
*871 FILLER_29_293
*872 FILLER_29_3
*873 FILLER_29_39
*874 FILLER_29_50
*875 FILLER_29_57
*876 FILLER_29_63
*877 FILLER_29_7
*878 FILLER_29_71
*879 FILLER_29_77
*880 FILLER_29_84
*881 FILLER_29_91
*882 FILLER_2_109
*883 FILLER_2_121
*884 FILLER_2_133
*885 FILLER_2_139
*886 FILLER_2_141
*887 FILLER_2_15
*888 FILLER_2_153
*889 FILLER_2_165
*890 FILLER_2_177
*891 FILLER_2_189
*892 FILLER_2_195
*893 FILLER_2_197
*894 FILLER_2_209
*895 FILLER_2_221
*896 FILLER_2_233
*897 FILLER_2_245
*898 FILLER_2_251
*899 FILLER_2_253
*900 FILLER_2_265
*901 FILLER_2_27
*902 FILLER_2_277
*903 FILLER_2_289
*904 FILLER_2_29
*905 FILLER_2_297
*906 FILLER_2_3
*907 FILLER_2_41
*908 FILLER_2_53
*909 FILLER_2_65
*910 FILLER_2_77
*911 FILLER_2_83
*912 FILLER_2_85
*913 FILLER_2_97
*914 FILLER_30_109
*915 FILLER_30_121
*916 FILLER_30_13
*917 FILLER_30_133
*918 FILLER_30_139
*919 FILLER_30_141
*920 FILLER_30_153
*921 FILLER_30_165
*922 FILLER_30_177
*923 FILLER_30_189
*924 FILLER_30_195
*925 FILLER_30_197
*926 FILLER_30_209
*927 FILLER_30_22
*928 FILLER_30_221
*929 FILLER_30_233
*930 FILLER_30_245
*931 FILLER_30_251
*932 FILLER_30_253
*933 FILLER_30_265
*934 FILLER_30_277
*935 FILLER_30_289
*936 FILLER_30_29
*937 FILLER_30_297
*938 FILLER_30_3
*939 FILLER_30_40
*940 FILLER_30_44
*941 FILLER_30_65
*942 FILLER_30_7
*943 FILLER_30_76
*944 FILLER_30_85
*945 FILLER_30_97
*946 FILLER_31_106
*947 FILLER_31_113
*948 FILLER_31_125
*949 FILLER_31_137
*950 FILLER_31_149
*951 FILLER_31_161
*952 FILLER_31_167
*953 FILLER_31_169
*954 FILLER_31_181
*955 FILLER_31_193
*956 FILLER_31_205
*957 FILLER_31_217
*958 FILLER_31_223
*959 FILLER_31_225
*960 FILLER_31_237
*961 FILLER_31_249
*962 FILLER_31_25
*963 FILLER_31_261
*964 FILLER_31_273
*965 FILLER_31_279
*966 FILLER_31_281
*967 FILLER_31_29
*968 FILLER_31_293
*969 FILLER_31_3
*970 FILLER_31_47
*971 FILLER_31_54
*972 FILLER_31_57
*973 FILLER_31_61
*974 FILLER_31_82
*975 FILLER_31_94
*976 FILLER_32_109
*977 FILLER_32_121
*978 FILLER_32_133
*979 FILLER_32_139
*980 FILLER_32_141
*981 FILLER_32_153
*982 FILLER_32_165
*983 FILLER_32_177
*984 FILLER_32_189
*985 FILLER_32_195
*986 FILLER_32_197
*987 FILLER_32_209
*988 FILLER_32_221
*989 FILLER_32_233
*990 FILLER_32_245
*991 FILLER_32_251
*992 FILLER_32_253
*993 FILLER_32_26
*994 FILLER_32_265
*995 FILLER_32_277
*996 FILLER_32_289
*997 FILLER_32_29
*998 FILLER_32_297
*999 FILLER_32_3
*1000 FILLER_32_37
*1001 FILLER_32_48
*1002 FILLER_32_54
*1003 FILLER_32_60
*1004 FILLER_32_68
*1005 FILLER_32_75
*1006 FILLER_32_83
*1007 FILLER_32_85
*1008 FILLER_32_97
*1009 FILLER_33_10
*1010 FILLER_33_107
*1011 FILLER_33_111
*1012 FILLER_33_113
*1013 FILLER_33_125
*1014 FILLER_33_137
*1015 FILLER_33_149
*1016 FILLER_33_16
*1017 FILLER_33_161
*1018 FILLER_33_167
*1019 FILLER_33_169
*1020 FILLER_33_181
*1021 FILLER_33_193
*1022 FILLER_33_205
*1023 FILLER_33_21
*1024 FILLER_33_217
*1025 FILLER_33_223
*1026 FILLER_33_225
*1027 FILLER_33_237
*1028 FILLER_33_249
*1029 FILLER_33_261
*1030 FILLER_33_273
*1031 FILLER_33_279
*1032 FILLER_33_281
*1033 FILLER_33_293
*1034 FILLER_33_3
*1035 FILLER_33_48
*1036 FILLER_33_57
*1037 FILLER_33_63
*1038 FILLER_33_67
*1039 FILLER_33_71
*1040 FILLER_33_83
*1041 FILLER_33_95
*1042 FILLER_34_10
*1043 FILLER_34_109
*1044 FILLER_34_121
*1045 FILLER_34_133
*1046 FILLER_34_139
*1047 FILLER_34_141
*1048 FILLER_34_153
*1049 FILLER_34_165
*1050 FILLER_34_177
*1051 FILLER_34_18
*1052 FILLER_34_189
*1053 FILLER_34_195
*1054 FILLER_34_197
*1055 FILLER_34_209
*1056 FILLER_34_221
*1057 FILLER_34_233
*1058 FILLER_34_245
*1059 FILLER_34_251
*1060 FILLER_34_253
*1061 FILLER_34_26
*1062 FILLER_34_265
*1063 FILLER_34_277
*1064 FILLER_34_289
*1065 FILLER_34_29
*1066 FILLER_34_297
*1067 FILLER_34_3
*1068 FILLER_34_33
*1069 FILLER_34_57
*1070 FILLER_34_81
*1071 FILLER_34_85
*1072 FILLER_34_97
*1073 FILLER_35_105
*1074 FILLER_35_111
*1075 FILLER_35_113
*1076 FILLER_35_125
*1077 FILLER_35_137
*1078 FILLER_35_149
*1079 FILLER_35_15
*1080 FILLER_35_161
*1081 FILLER_35_167
*1082 FILLER_35_169
*1083 FILLER_35_181
*1084 FILLER_35_193
*1085 FILLER_35_205
*1086 FILLER_35_217
*1087 FILLER_35_223
*1088 FILLER_35_225
*1089 FILLER_35_23
*1090 FILLER_35_237
*1091 FILLER_35_249
*1092 FILLER_35_261
*1093 FILLER_35_27
*1094 FILLER_35_273
*1095 FILLER_35_279
*1096 FILLER_35_281
*1097 FILLER_35_293
*1098 FILLER_35_3
*1099 FILLER_35_32
*1100 FILLER_35_40
*1101 FILLER_35_46
*1102 FILLER_35_50
*1103 FILLER_35_57
*1104 FILLER_35_69
*1105 FILLER_35_7
*1106 FILLER_35_81
*1107 FILLER_35_93
*1108 FILLER_36_109
*1109 FILLER_36_121
*1110 FILLER_36_133
*1111 FILLER_36_139
*1112 FILLER_36_141
*1113 FILLER_36_153
*1114 FILLER_36_165
*1115 FILLER_36_17
*1116 FILLER_36_177
*1117 FILLER_36_189
*1118 FILLER_36_195
*1119 FILLER_36_197
*1120 FILLER_36_209
*1121 FILLER_36_221
*1122 FILLER_36_233
*1123 FILLER_36_245
*1124 FILLER_36_251
*1125 FILLER_36_253
*1126 FILLER_36_26
*1127 FILLER_36_265
*1128 FILLER_36_277
*1129 FILLER_36_289
*1130 FILLER_36_29
*1131 FILLER_36_297
*1132 FILLER_36_3
*1133 FILLER_36_36
*1134 FILLER_36_43
*1135 FILLER_36_55
*1136 FILLER_36_67
*1137 FILLER_36_79
*1138 FILLER_36_83
*1139 FILLER_36_85
*1140 FILLER_36_9
*1141 FILLER_36_97
*1142 FILLER_37_105
*1143 FILLER_37_111
*1144 FILLER_37_113
*1145 FILLER_37_125
*1146 FILLER_37_137
*1147 FILLER_37_14
*1148 FILLER_37_149
*1149 FILLER_37_161
*1150 FILLER_37_167
*1151 FILLER_37_169
*1152 FILLER_37_181
*1153 FILLER_37_193
*1154 FILLER_37_205
*1155 FILLER_37_217
*1156 FILLER_37_22
*1157 FILLER_37_223
*1158 FILLER_37_225
*1159 FILLER_37_237
*1160 FILLER_37_249
*1161 FILLER_37_26
*1162 FILLER_37_261
*1163 FILLER_37_273
*1164 FILLER_37_279
*1165 FILLER_37_281
*1166 FILLER_37_293
*1167 FILLER_37_3
*1168 FILLER_37_30
*1169 FILLER_37_37
*1170 FILLER_37_49
*1171 FILLER_37_55
*1172 FILLER_37_57
*1173 FILLER_37_69
*1174 FILLER_37_7
*1175 FILLER_37_81
*1176 FILLER_37_93
*1177 FILLER_38_109
*1178 FILLER_38_121
*1179 FILLER_38_133
*1180 FILLER_38_139
*1181 FILLER_38_141
*1182 FILLER_38_153
*1183 FILLER_38_16
*1184 FILLER_38_165
*1185 FILLER_38_177
*1186 FILLER_38_189
*1187 FILLER_38_195
*1188 FILLER_38_197
*1189 FILLER_38_209
*1190 FILLER_38_221
*1191 FILLER_38_233
*1192 FILLER_38_245
*1193 FILLER_38_251
*1194 FILLER_38_253
*1195 FILLER_38_26
*1196 FILLER_38_265
*1197 FILLER_38_277
*1198 FILLER_38_289
*1199 FILLER_38_29
*1200 FILLER_38_297
*1201 FILLER_38_3
*1202 FILLER_38_34
*1203 FILLER_38_46
*1204 FILLER_38_58
*1205 FILLER_38_70
*1206 FILLER_38_82
*1207 FILLER_38_85
*1208 FILLER_38_9
*1209 FILLER_38_97
*1210 FILLER_39_105
*1211 FILLER_39_111
*1212 FILLER_39_113
*1213 FILLER_39_125
*1214 FILLER_39_137
*1215 FILLER_39_149
*1216 FILLER_39_161
*1217 FILLER_39_167
*1218 FILLER_39_169
*1219 FILLER_39_18
*1220 FILLER_39_181
*1221 FILLER_39_193
*1222 FILLER_39_205
*1223 FILLER_39_217
*1224 FILLER_39_223
*1225 FILLER_39_225
*1226 FILLER_39_237
*1227 FILLER_39_249
*1228 FILLER_39_26
*1229 FILLER_39_261
*1230 FILLER_39_273
*1231 FILLER_39_279
*1232 FILLER_39_281
*1233 FILLER_39_293
*1234 FILLER_39_3
*1235 FILLER_39_38
*1236 FILLER_39_50
*1237 FILLER_39_57
*1238 FILLER_39_69
*1239 FILLER_39_81
*1240 FILLER_39_9
*1241 FILLER_39_93
*1242 FILLER_3_105
*1243 FILLER_3_111
*1244 FILLER_3_113
*1245 FILLER_3_125
*1246 FILLER_3_137
*1247 FILLER_3_149
*1248 FILLER_3_15
*1249 FILLER_3_161
*1250 FILLER_3_167
*1251 FILLER_3_169
*1252 FILLER_3_181
*1253 FILLER_3_193
*1254 FILLER_3_205
*1255 FILLER_3_217
*1256 FILLER_3_223
*1257 FILLER_3_225
*1258 FILLER_3_237
*1259 FILLER_3_249
*1260 FILLER_3_261
*1261 FILLER_3_27
*1262 FILLER_3_273
*1263 FILLER_3_279
*1264 FILLER_3_281
*1265 FILLER_3_293
*1266 FILLER_3_3
*1267 FILLER_3_39
*1268 FILLER_3_51
*1269 FILLER_3_55
*1270 FILLER_3_57
*1271 FILLER_3_69
*1272 FILLER_3_81
*1273 FILLER_3_93
*1274 FILLER_40_109
*1275 FILLER_40_121
*1276 FILLER_40_133
*1277 FILLER_40_139
*1278 FILLER_40_141
*1279 FILLER_40_15
*1280 FILLER_40_153
*1281 FILLER_40_165
*1282 FILLER_40_177
*1283 FILLER_40_189
*1284 FILLER_40_195
*1285 FILLER_40_197
*1286 FILLER_40_209
*1287 FILLER_40_221
*1288 FILLER_40_233
*1289 FILLER_40_245
*1290 FILLER_40_25
*1291 FILLER_40_251
*1292 FILLER_40_253
*1293 FILLER_40_265
*1294 FILLER_40_277
*1295 FILLER_40_289
*1296 FILLER_40_29
*1297 FILLER_40_297
*1298 FILLER_40_3
*1299 FILLER_40_34
*1300 FILLER_40_46
*1301 FILLER_40_58
*1302 FILLER_40_7
*1303 FILLER_40_70
*1304 FILLER_40_82
*1305 FILLER_40_85
*1306 FILLER_40_97
*1307 FILLER_41_105
*1308 FILLER_41_111
*1309 FILLER_41_113
*1310 FILLER_41_125
*1311 FILLER_41_137
*1312 FILLER_41_14
*1313 FILLER_41_149
*1314 FILLER_41_161
*1315 FILLER_41_167
*1316 FILLER_41_169
*1317 FILLER_41_181
*1318 FILLER_41_193
*1319 FILLER_41_205
*1320 FILLER_41_217
*1321 FILLER_41_223
*1322 FILLER_41_225
*1323 FILLER_41_237
*1324 FILLER_41_249
*1325 FILLER_41_261
*1326 FILLER_41_273
*1327 FILLER_41_279
*1328 FILLER_41_28
*1329 FILLER_41_281
*1330 FILLER_41_293
*1331 FILLER_41_3
*1332 FILLER_41_40
*1333 FILLER_41_52
*1334 FILLER_41_57
*1335 FILLER_41_69
*1336 FILLER_41_7
*1337 FILLER_41_81
*1338 FILLER_41_93
*1339 FILLER_42_109
*1340 FILLER_42_121
*1341 FILLER_42_133
*1342 FILLER_42_139
*1343 FILLER_42_14
*1344 FILLER_42_141
*1345 FILLER_42_153
*1346 FILLER_42_165
*1347 FILLER_42_177
*1348 FILLER_42_189
*1349 FILLER_42_195
*1350 FILLER_42_197
*1351 FILLER_42_209
*1352 FILLER_42_221
*1353 FILLER_42_233
*1354 FILLER_42_245
*1355 FILLER_42_251
*1356 FILLER_42_253
*1357 FILLER_42_26
*1358 FILLER_42_265
*1359 FILLER_42_277
*1360 FILLER_42_289
*1361 FILLER_42_29
*1362 FILLER_42_297
*1363 FILLER_42_3
*1364 FILLER_42_41
*1365 FILLER_42_53
*1366 FILLER_42_65
*1367 FILLER_42_7
*1368 FILLER_42_77
*1369 FILLER_42_83
*1370 FILLER_42_85
*1371 FILLER_42_97
*1372 FILLER_43_105
*1373 FILLER_43_111
*1374 FILLER_43_113
*1375 FILLER_43_125
*1376 FILLER_43_137
*1377 FILLER_43_149
*1378 FILLER_43_161
*1379 FILLER_43_167
*1380 FILLER_43_169
*1381 FILLER_43_181
*1382 FILLER_43_193
*1383 FILLER_43_205
*1384 FILLER_43_21
*1385 FILLER_43_217
*1386 FILLER_43_223
*1387 FILLER_43_225
*1388 FILLER_43_237
*1389 FILLER_43_249
*1390 FILLER_43_261
*1391 FILLER_43_273
*1392 FILLER_43_279
*1393 FILLER_43_281
*1394 FILLER_43_293
*1395 FILLER_43_3
*1396 FILLER_43_33
*1397 FILLER_43_45
*1398 FILLER_43_53
*1399 FILLER_43_57
*1400 FILLER_43_69
*1401 FILLER_43_81
*1402 FILLER_43_9
*1403 FILLER_43_93
*1404 FILLER_44_109
*1405 FILLER_44_121
*1406 FILLER_44_133
*1407 FILLER_44_139
*1408 FILLER_44_141
*1409 FILLER_44_15
*1410 FILLER_44_153
*1411 FILLER_44_165
*1412 FILLER_44_177
*1413 FILLER_44_189
*1414 FILLER_44_195
*1415 FILLER_44_197
*1416 FILLER_44_209
*1417 FILLER_44_221
*1418 FILLER_44_233
*1419 FILLER_44_245
*1420 FILLER_44_25
*1421 FILLER_44_251
*1422 FILLER_44_253
*1423 FILLER_44_265
*1424 FILLER_44_277
*1425 FILLER_44_289
*1426 FILLER_44_29
*1427 FILLER_44_297
*1428 FILLER_44_3
*1429 FILLER_44_41
*1430 FILLER_44_53
*1431 FILLER_44_65
*1432 FILLER_44_77
*1433 FILLER_44_83
*1434 FILLER_44_85
*1435 FILLER_44_97
*1436 FILLER_45_105
*1437 FILLER_45_111
*1438 FILLER_45_113
*1439 FILLER_45_125
*1440 FILLER_45_137
*1441 FILLER_45_149
*1442 FILLER_45_15
*1443 FILLER_45_161
*1444 FILLER_45_167
*1445 FILLER_45_169
*1446 FILLER_45_181
*1447 FILLER_45_193
*1448 FILLER_45_205
*1449 FILLER_45_217
*1450 FILLER_45_223
*1451 FILLER_45_225
*1452 FILLER_45_237