*SPEF "ieee 1481-1999"
*DESIGN "tt2_tholin_namebadge"
*DATE "11:11:11 Fri 11 11, 1111"
*VENDOR "OpenRCX"
*PROGRAM "Parallel Extraction"
*VERSION "1.0"
*DESIGN_FLOW "NAME_SCOPE LOCAL" "PIN_CAP NONE"
*DIVIDER /
*DELIMITER :
*BUS_DELIMITER []
*T_UNIT 1 NS
*C_UNIT 1 PF
*R_UNIT 1 OHM
*L_UNIT 1 HENRY

*NAME_MAP
*1 io_in[0]
*2 io_in[1]
*3 io_in[2]
*4 io_in[3]
*5 io_in[4]
*6 io_in[5]
*7 io_in[6]
*8 io_in[7]
*9 io_out[0]
*10 io_out[1]
*11 io_out[2]
*12 io_out[3]
*13 io_out[4]
*14 io_out[5]
*15 io_out[6]
*16 io_out[7]
*19 _000_
*20 _001_
*21 _002_
*22 _003_
*23 _004_
*24 _005_
*25 _006_
*26 _007_
*27 _008_
*28 _009_
*29 _010_
*30 _011_
*31 _012_
*32 _013_
*33 _014_
*34 _015_
*35 _016_
*36 _017_
*37 _018_
*38 _019_
*39 _020_
*40 _021_
*41 _022_
*42 _023_
*43 _024_
*44 _025_
*45 _026_
*46 _027_
*47 _028_
*48 _029_
*49 _030_
*50 _031_
*51 _032_
*52 _033_
*53 _034_
*54 _035_
*55 _036_
*56 _037_
*57 _038_
*58 _039_
*59 _040_
*60 _041_
*61 _042_
*62 _043_
*63 _044_
*64 _045_
*65 _046_
*66 _047_
*67 _048_
*68 _049_
*69 _050_
*70 _051_
*71 _052_
*72 _053_
*73 _054_
*74 _055_
*75 _056_
*76 _057_
*77 _058_
*78 _059_
*79 _060_
*80 _061_
*81 _062_
*82 _063_
*83 _064_
*84 _065_
*85 _066_
*86 _067_
*87 _068_
*88 _069_
*89 _070_
*90 _071_
*91 _072_
*92 _073_
*93 _074_
*94 _075_
*95 _076_
*96 _077_
*97 _078_
*98 _079_
*99 _080_
*100 _081_
*101 _082_
*102 _083_
*103 _084_
*104 _085_
*105 _086_
*106 _087_
*107 _088_
*108 _089_
*109 _090_
*110 _091_
*111 _092_
*112 _093_
*113 _094_
*114 _095_
*115 _096_
*116 _097_
*117 _098_
*118 _099_
*119 _100_
*120 _101_
*121 _102_
*122 _103_
*123 _104_
*124 _105_
*125 _106_
*126 _107_
*127 _108_
*128 _109_
*129 _110_
*130 _111_
*131 _112_
*132 _113_
*133 _114_
*134 _115_
*135 _116_
*136 _117_
*137 _118_
*138 _119_
*139 _120_
*140 _121_
*141 _122_
*142 _123_
*143 _124_
*144 _125_
*145 _126_
*146 _127_
*147 _128_
*148 _129_
*149 _130_
*150 _131_
*151 _132_
*152 _133_
*153 _134_
*154 _135_
*155 _136_
*156 _137_
*157 _138_
*158 _139_
*159 _140_
*160 _141_
*161 _142_
*162 _143_
*163 _144_
*164 _145_
*165 _146_
*166 _147_
*167 _148_
*168 _149_
*169 _150_
*170 _151_
*171 _152_
*172 _153_
*173 _154_
*174 _155_
*175 _156_
*176 _157_
*177 _158_
*178 _159_
*179 _160_
*180 _161_
*181 _162_
*182 _163_
*183 _164_
*184 _165_
*185 _166_
*186 _167_
*187 _168_
*188 _169_
*189 _170_
*190 _171_
*191 _172_
*192 _173_
*193 _174_
*194 _175_
*195 _176_
*196 _177_
*197 _178_
*198 _179_
*199 _180_
*200 _181_
*201 _182_
*202 _183_
*203 _184_
*204 _185_
*205 _186_
*206 _187_
*207 _188_
*208 _189_
*209 _190_
*210 _191_
*211 _192_
*212 _193_
*213 _194_
*214 _195_
*215 _196_
*216 _197_
*217 _198_
*218 _199_
*219 _200_
*220 _201_
*221 _202_
*222 _203_
*223 _204_
*224 _205_
*225 _206_
*226 _207_
*227 _208_
*228 _209_
*229 _210_
*230 _211_
*231 _212_
*232 _213_
*233 _214_
*234 _215_
*235 _216_
*236 _217_
*237 _218_
*238 _219_
*239 _220_
*240 _221_
*241 _222_
*242 _223_
*243 _224_
*244 _225_
*245 _226_
*246 _227_
*247 _228_
*248 _229_
*249 _230_
*250 _231_
*251 _232_
*252 _233_
*253 _234_
*254 _235_
*255 _236_
*256 _237_
*257 _238_
*258 _239_
*259 _240_
*260 _241_
*261 _242_
*262 _243_
*263 _244_
*264 _245_
*265 _246_
*266 _247_
*267 _248_
*268 _249_
*269 _250_
*270 _251_
*271 _252_
*272 _253_
*273 _254_
*274 _255_
*275 _256_
*276 _257_
*277 _258_
*278 _259_
*279 _260_
*280 _261_
*281 _262_
*282 _263_
*283 _264_
*284 _265_
*285 _266_
*286 _267_
*287 _268_
*288 _269_
*289 _270_
*290 _271_
*291 _272_
*292 _273_
*293 _274_
*294 _275_
*295 _276_
*296 _277_
*297 _278_
*298 _279_
*299 _280_
*300 _281_
*301 _282_
*302 _283_
*303 _284_
*304 _285_
*305 _286_
*306 _287_
*307 _288_
*308 _289_
*309 _290_
*310 _291_
*311 _292_
*312 _293_
*313 _294_
*314 _295_
*315 _296_
*316 _297_
*317 _298_
*318 _299_
*319 _300_
*320 _301_
*321 _302_
*322 _303_
*323 _304_
*324 _305_
*325 _306_
*326 _307_
*327 _308_
*328 _309_
*329 _310_
*330 _311_
*331 _312_
*332 _313_
*333 _314_
*334 _315_
*335 _316_
*336 _317_
*337 _318_
*338 _319_
*339 _320_
*340 _321_
*341 _322_
*342 _323_
*343 _324_
*344 _325_
*345 _326_
*346 _327_
*347 _328_
*348 _329_
*349 _330_
*350 _331_
*351 _332_
*352 _333_
*353 _334_
*354 _335_
*355 _336_
*356 _337_
*357 _338_
*358 _339_
*359 _340_
*360 _341_
*361 _342_
*362 _343_
*363 _344_
*364 _345_
*365 _346_
*366 _347_
*367 _348_
*368 _349_
*369 _350_
*370 _351_
*371 _352_
*372 _353_
*373 _354_
*374 _355_
*375 _356_
*376 _357_
*377 _358_
*378 _359_
*379 _360_
*380 _361_
*381 _362_
*382 _363_
*383 _364_
*384 _365_
*385 _366_
*386 _367_
*387 _368_
*388 _369_
*389 _370_
*390 _371_
*391 _372_
*392 _373_
*393 _374_
*394 _375_
*395 _376_
*396 _377_
*397 _378_
*398 _379_
*399 _380_
*400 _381_
*401 _382_
*402 _383_
*403 _384_
*404 _385_
*405 _386_
*406 _387_
*407 _388_
*408 _389_
*409 _390_
*410 _391_
*411 _392_
*412 _393_
*413 _394_
*414 _395_
*415 _396_
*416 _397_
*417 _398_
*418 _399_
*419 _400_
*420 _401_
*421 _402_
*422 _403_
*423 clknet_0_io_in[0]
*424 clknet_2_0__leaf_io_in[0]
*425 clknet_2_1__leaf_io_in[0]
*426 clknet_2_2__leaf_io_in[0]
*427 clknet_2_3__leaf_io_in[0]
*428 lcd\.D4
*429 lcd\.D5
*430 lcd\.D6
*431 lcd\.D7
*432 lcd\.E
*433 lcd\.LED0
*434 lcd\.RS
*435 lcd\.num_state\[0\]
*436 lcd\.num_state\[1\]
*437 lcd\.rom_addr\[0\]
*438 lcd\.rom_addr\[1\]
*439 lcd\.rom_addr\[3\]
*440 lcd\.rom_addr\[4\]
*441 lcd\.rom_addr\[5\]
*442 lcd\.rom_addr\[6\]
*443 lcd\.round\[0\]
*444 lcd\.round\[1\]
*445 lcd\.s_ROM\[0\]
*446 lcd\.s_ROM\[1\]
*447 lcd\.s_ROM\[2\]
*448 lcd\.s_ROM\[3\]
*449 lcd\.s_ROM\[4\]
*450 lcd\.s_ROM\[5\]
*451 lcd\.s_ROM\[6\]
*452 lcd\.seq\[0\]
*453 lcd\.seq\[1\]
*454 lcd\.seq\[2\]
*455 lcd\.seq\[3\]
*456 lcd\.seq\[4\]
*457 lcd\.seq\[5\]
*458 lcd\.seq\[6\]
*459 lcd\.seq\[7\]
*460 lcd\.toggle
*461 net1
*462 net2
*463 net3
*464 net4
*465 ANTENNA_1
*466 ANTENNA_2
*467 FILLER_0_103
*468 FILLER_0_111
*469 FILLER_0_113
*470 FILLER_0_125
*471 FILLER_0_137
*472 FILLER_0_141
*473 FILLER_0_153
*474 FILLER_0_165
*475 FILLER_0_169
*476 FILLER_0_181
*477 FILLER_0_193
*478 FILLER_0_197
*479 FILLER_0_209
*480 FILLER_0_221
*481 FILLER_0_225
*482 FILLER_0_237
*483 FILLER_0_249
*484 FILLER_0_253
*485 FILLER_0_26
*486 FILLER_0_265
*487 FILLER_0_277
*488 FILLER_0_281
*489 FILLER_0_29
*490 FILLER_0_293
*491 FILLER_0_3
*492 FILLER_0_47
*493 FILLER_0_55
*494 FILLER_0_57
*495 FILLER_0_75
*496 FILLER_0_83
*497 FILLER_0_85
*498 FILLER_0_9
*499 FILLER_10_104
*500 FILLER_10_121
*501 FILLER_10_131
*502 FILLER_10_139
*503 FILLER_10_141
*504 FILLER_10_153
*505 FILLER_10_165
*506 FILLER_10_177
*507 FILLER_10_189
*508 FILLER_10_195
*509 FILLER_10_197
*510 FILLER_10_209
*511 FILLER_10_221
*512 FILLER_10_233
*513 FILLER_10_245
*514 FILLER_10_251
*515 FILLER_10_253
*516 FILLER_10_26
*517 FILLER_10_265
*518 FILLER_10_277
*519 FILLER_10_289
*520 FILLER_10_29
*521 FILLER_10_297
*522 FILLER_10_3
*523 FILLER_10_48
*524 FILLER_10_68
*525 FILLER_10_78
*526 FILLER_10_85
*527 FILLER_10_92
*528 FILLER_11_101
*529 FILLER_11_109
*530 FILLER_11_113
*531 FILLER_11_121
*532 FILLER_11_133
*533 FILLER_11_145
*534 FILLER_11_15
*535 FILLER_11_157
*536 FILLER_11_165
*537 FILLER_11_169
*538 FILLER_11_181
*539 FILLER_11_193
*540 FILLER_11_205
*541 FILLER_11_217
*542 FILLER_11_223
*543 FILLER_11_225
*544 FILLER_11_23
*545 FILLER_11_237
*546 FILLER_11_249
*547 FILLER_11_261
*548 FILLER_11_273
*549 FILLER_11_279
*550 FILLER_11_281
*551 FILLER_11_293
*552 FILLER_11_3
*553 FILLER_11_41
*554 FILLER_11_53
*555 FILLER_11_57
*556 FILLER_11_69
*557 FILLER_11_77
*558 FILLER_11_8
*559 FILLER_11_89
*560 FILLER_12_104
*561 FILLER_12_114
*562 FILLER_12_126
*563 FILLER_12_138
*564 FILLER_12_141
*565 FILLER_12_153
*566 FILLER_12_165
*567 FILLER_12_177
*568 FILLER_12_189
*569 FILLER_12_195
*570 FILLER_12_197
*571 FILLER_12_209
*572 FILLER_12_221
*573 FILLER_12_233
*574 FILLER_12_245
*575 FILLER_12_251
*576 FILLER_12_253
*577 FILLER_12_26
*578 FILLER_12_265
*579 FILLER_12_277
*580 FILLER_12_289
*581 FILLER_12_29
*582 FILLER_12_297
*583 FILLER_12_3
*584 FILLER_12_47
*585 FILLER_12_59
*586 FILLER_12_71
*587 FILLER_12_82
*588 FILLER_12_85
*589 FILLER_12_9
*590 FILLER_12_96
*591 FILLER_13_111
*592 FILLER_13_113
*593 FILLER_13_125
*594 FILLER_13_137
*595 FILLER_13_149
*596 FILLER_13_15
*597 FILLER_13_161
*598 FILLER_13_167
*599 FILLER_13_169
*600 FILLER_13_181
*601 FILLER_13_193
*602 FILLER_13_205
*603 FILLER_13_217
*604 FILLER_13_223
*605 FILLER_13_225
*606 FILLER_13_23
*607 FILLER_13_237
*608 FILLER_13_249
*609 FILLER_13_261
*610 FILLER_13_273
*611 FILLER_13_279
*612 FILLER_13_281
*613 FILLER_13_293
*614 FILLER_13_3
*615 FILLER_13_40
*616 FILLER_13_52
*617 FILLER_13_57
*618 FILLER_13_65
*619 FILLER_13_75
*620 FILLER_13_87
*621 FILLER_13_99
*622 FILLER_14_111
*623 FILLER_14_123
*624 FILLER_14_135
*625 FILLER_14_139
*626 FILLER_14_141
*627 FILLER_14_153
*628 FILLER_14_165
*629 FILLER_14_177
*630 FILLER_14_189
*631 FILLER_14_195
*632 FILLER_14_197
*633 FILLER_14_209
*634 FILLER_14_21
*635 FILLER_14_221
*636 FILLER_14_233
*637 FILLER_14_245
*638 FILLER_14_251
*639 FILLER_14_253
*640 FILLER_14_265
*641 FILLER_14_27
*642 FILLER_14_277
*643 FILLER_14_289
*644 FILLER_14_29
*645 FILLER_14_297
*646 FILLER_14_3
*647 FILLER_14_47
*648 FILLER_14_59
*649 FILLER_14_71
*650 FILLER_14_83
*651 FILLER_14_85
*652 FILLER_14_93
*653 FILLER_14_99
*654 FILLER_15_108
*655 FILLER_15_113
*656 FILLER_15_121
*657 FILLER_15_133
*658 FILLER_15_145
*659 FILLER_15_15
*660 FILLER_15_157
*661 FILLER_15_165
*662 FILLER_15_169
*663 FILLER_15_181
*664 FILLER_15_193
*665 FILLER_15_205
*666 FILLER_15_217
*667 FILLER_15_223
*668 FILLER_15_225
*669 FILLER_15_237
*670 FILLER_15_249
*671 FILLER_15_261
*672 FILLER_15_27
*673 FILLER_15_273
*674 FILLER_15_279
*675 FILLER_15_281
*676 FILLER_15_293
*677 FILLER_15_3
*678 FILLER_15_39
*679 FILLER_15_43
*680 FILLER_15_48
*681 FILLER_15_57
*682 FILLER_15_63
*683 FILLER_15_75
*684 FILLER_15_87
*685 FILLER_15_96
*686 FILLER_16_103
*687 FILLER_16_111
*688 FILLER_16_119
*689 FILLER_16_131
*690 FILLER_16_139
*691 FILLER_16_141
*692 FILLER_16_153
*693 FILLER_16_165
*694 FILLER_16_177
*695 FILLER_16_189
*696 FILLER_16_195
*697 FILLER_16_197
*698 FILLER_16_20
*699 FILLER_16_209
*700 FILLER_16_221
*701 FILLER_16_233
*702 FILLER_16_245
*703 FILLER_16_251
*704 FILLER_16_253
*705 FILLER_16_265
*706 FILLER_16_277
*707 FILLER_16_289
*708 FILLER_16_29
*709 FILLER_16_297
*710 FILLER_16_3
*711 FILLER_16_42
*712 FILLER_16_54
*713 FILLER_16_61
*714 FILLER_16_70
*715 FILLER_16_78
*716 FILLER_16_8
*717 FILLER_16_82
*718 FILLER_16_85
*719 FILLER_16_91
*720 FILLER_17_103
*721 FILLER_17_111
*722 FILLER_17_113
*723 FILLER_17_125
*724 FILLER_17_137
*725 FILLER_17_141
*726 FILLER_17_147
*727 FILLER_17_15
*728 FILLER_17_159
*729 FILLER_17_167
*730 FILLER_17_169
*731 FILLER_17_181
*732 FILLER_17_193
*733 FILLER_17_205
*734 FILLER_17_217
*735 FILLER_17_223
*736 FILLER_17_225
*737 FILLER_17_237
*738 FILLER_17_249
*739 FILLER_17_261
*740 FILLER_17_27
*741 FILLER_17_273
*742 FILLER_17_279
*743 FILLER_17_281
*744 FILLER_17_293
*745 FILLER_17_3
*746 FILLER_17_38
*747 FILLER_17_53
*748 FILLER_17_57
*749 FILLER_17_72
*750 FILLER_17_84
*751 FILLER_17_96
*752 FILLER_18_105
*753 FILLER_18_117
*754 FILLER_18_129
*755 FILLER_18_137
*756 FILLER_18_141
*757 FILLER_18_15
*758 FILLER_18_153
*759 FILLER_18_165
*760 FILLER_18_177
*761 FILLER_18_189
*762 FILLER_18_195
*763 FILLER_18_197
*764 FILLER_18_209
*765 FILLER_18_221
*766 FILLER_18_233
*767 FILLER_18_245
*768 FILLER_18_251
*769 FILLER_18_253
*770 FILLER_18_265
*771 FILLER_18_27
*772 FILLER_18_277
*773 FILLER_18_289
*774 FILLER_18_29
*775 FILLER_18_297
*776 FILLER_18_3
*777 FILLER_18_38
*778 FILLER_18_44
*779 FILLER_18_48
*780 FILLER_18_60
*781 FILLER_18_82
*782 FILLER_18_85
*783 FILLER_18_93
*784 FILLER_19_104
*785 FILLER_19_113
*786 FILLER_19_120
*787 FILLER_19_132
*788 FILLER_19_144
*789 FILLER_19_15
*790 FILLER_19_156
*791 FILLER_19_169
*792 FILLER_19_181
*793 FILLER_19_193
*794 FILLER_19_205
*795 FILLER_19_217
*796 FILLER_19_223
*797 FILLER_19_225
*798 FILLER_19_237
*799 FILLER_19_24
*800 FILLER_19_249
*801 FILLER_19_261
*802 FILLER_19_273
*803 FILLER_19_279
*804 FILLER_19_281
*805 FILLER_19_293
*806 FILLER_19_3
*807 FILLER_19_39
*808 FILLER_19_46
*809 FILLER_19_54
*810 FILLER_19_57
*811 FILLER_19_65
*812 FILLER_19_80
*813 FILLER_19_88
*814 FILLER_19_96
*815 FILLER_1_102
*816 FILLER_1_110
*817 FILLER_1_113
*818 FILLER_1_122
*819 FILLER_1_134
*820 FILLER_1_146
*821 FILLER_1_158
*822 FILLER_1_166
*823 FILLER_1_169
*824 FILLER_1_181
*825 FILLER_1_193
*826 FILLER_1_205
*827 FILLER_1_21
*828 FILLER_1_217
*829 FILLER_1_223
*830 FILLER_1_225
*831 FILLER_1_237
*832 FILLER_1_249
*833 FILLER_1_261
*834 FILLER_1_273
*835 FILLER_1_279
*836 FILLER_1_281
*837 FILLER_1_29
*838 FILLER_1_293
*839 FILLER_1_3
*840 FILLER_1_48
*841 FILLER_1_57
*842 FILLER_1_75
*843 FILLER_1_95
*844 FILLER_20_109
*845 FILLER_20_121
*846 FILLER_20_133
*847 FILLER_20_139
*848 FILLER_20_141
*849 FILLER_20_153
*850 FILLER_20_165
*851 FILLER_20_177
*852 FILLER_20_189
*853 FILLER_20_195
*854 FILLER_20_197
*855 FILLER_20_20
*856 FILLER_20_209
*857 FILLER_20_221
*858 FILLER_20_233
*859 FILLER_20_245
*860 FILLER_20_251
*861 FILLER_20_253
*862 FILLER_20_265
*863 FILLER_20_277
*864 FILLER_20_289
*865 FILLER_20_29
*866 FILLER_20_297
*867 FILLER_20_3
*868 FILLER_20_33
*869 FILLER_20_38
*870 FILLER_20_55
*871 FILLER_20_67
*872 FILLER_20_74
*873 FILLER_20_8
*874 FILLER_20_81
*875 FILLER_20_85
*876 FILLER_20_97
*877 FILLER_21_107
*878 FILLER_21_111
*879 FILLER_21_113
*880 FILLER_21_125
*881 FILLER_21_137
*882 FILLER_21_149
*883 FILLER_21_15
*884 FILLER_21_161
*885 FILLER_21_167
*886 FILLER_21_169
*887 FILLER_21_181
*888 FILLER_21_204
*889 FILLER_21_216
*890 FILLER_21_225
*891 FILLER_21_237
*892 FILLER_21_249
*893 FILLER_21_261
*894 FILLER_21_27
*895 FILLER_21_273
*896 FILLER_21_279
*897 FILLER_21_281
*898 FILLER_21_293
*899 FILLER_21_3
*900 FILLER_21_39
*901 FILLER_21_47
*902 FILLER_21_53
*903 FILLER_21_57
*904 FILLER_21_69
*905 FILLER_21_73
*906 FILLER_21_79
*907 FILLER_21_87
*908 FILLER_21_95
*909 FILLER_22_102
*910 FILLER_22_112
*911 FILLER_22_124
*912 FILLER_22_136
*913 FILLER_22_141
*914 FILLER_22_15
*915 FILLER_22_153
*916 FILLER_22_165
*917 FILLER_22_177
*918 FILLER_22_189
*919 FILLER_22_195
*920 FILLER_22_197
*921 FILLER_22_209
*922 FILLER_22_22
*923 FILLER_22_221
*924 FILLER_22_233
*925 FILLER_22_245
*926 FILLER_22_251
*927 FILLER_22_253
*928 FILLER_22_265
*929 FILLER_22_277
*930 FILLER_22_289
*931 FILLER_22_29
*932 FILLER_22_297
*933 FILLER_22_3
*934 FILLER_22_41
*935 FILLER_22_53
*936 FILLER_22_65
*937 FILLER_22_71
*938 FILLER_22_81
*939 FILLER_22_85
*940 FILLER_22_98
*941 FILLER_23_105
*942 FILLER_23_111
*943 FILLER_23_113
*944 FILLER_23_125
*945 FILLER_23_137
*946 FILLER_23_145
*947 FILLER_23_15
*948 FILLER_23_156
*949 FILLER_23_169
*950 FILLER_23_181
*951 FILLER_23_19
*952 FILLER_23_193
*953 FILLER_23_219
*954 FILLER_23_223
*955 FILLER_23_225
*956 FILLER_23_23
*957 FILLER_23_237
*958 FILLER_23_249
*959 FILLER_23_261
*960 FILLER_23_273
*961 FILLER_23_279
*962 FILLER_23_281
*963 FILLER_23_293
*964 FILLER_23_3
*965 FILLER_23_35
*966 FILLER_23_53
*967 FILLER_23_57
*968 FILLER_23_69
*969 FILLER_23_81
*970 FILLER_23_93
*971 FILLER_24_109
*972 FILLER_24_11
*973 FILLER_24_121
*974 FILLER_24_133
*975 FILLER_24_139
*976 FILLER_24_141
*977 FILLER_24_153
*978 FILLER_24_165
*979 FILLER_24_177
*980 FILLER_24_18
*981 FILLER_24_189
*982 FILLER_24_195
*983 FILLER_24_197
*984 FILLER_24_209
*985 FILLER_24_221
*986 FILLER_24_233
*987 FILLER_24_245
*988 FILLER_24_251
*989 FILLER_24_253
*990 FILLER_24_26
*991 FILLER_24_265
*992 FILLER_24_277
*993 FILLER_24_289
*994 FILLER_24_29
*995 FILLER_24_297
*996 FILLER_24_3
*997 FILLER_24_37
*998 FILLER_24_50
*999 FILLER_24_61
*1000 FILLER_24_69
*1001 FILLER_24_73
*1002 FILLER_24_81
*1003 FILLER_24_85
*1004 FILLER_24_97
*1005 FILLER_25_108
*1006 FILLER_25_113
*1007 FILLER_25_121
*1008 FILLER_25_133
*1009 FILLER_25_145
*1010 FILLER_25_15
*1011 FILLER_25_157
*1012 FILLER_25_165
*1013 FILLER_25_169
*1014 FILLER_25_181
*1015 FILLER_25_193
*1016 FILLER_25_205
*1017 FILLER_25_217
*1018 FILLER_25_223
*1019 FILLER_25_225
*1020 FILLER_25_237
*1021 FILLER_25_249
*1022 FILLER_25_25
*1023 FILLER_25_261
*1024 FILLER_25_273
*1025 FILLER_25_279
*1026 FILLER_25_281
*1027 FILLER_25_293
*1028 FILLER_25_3
*1029 FILLER_25_37
*1030 FILLER_25_46
*1031 FILLER_25_54
*1032 FILLER_25_57
*1033 FILLER_25_69
*1034 FILLER_25_73
*1035 FILLER_25_83
*1036 FILLER_25_96
*1037 FILLER_26_100
*1038 FILLER_26_112
*1039 FILLER_26_122
*1040 FILLER_26_134
*1041 FILLER_26_141
*1042 FILLER_26_15
*1043 FILLER_26_153
*1044 FILLER_26_165
*1045 FILLER_26_177
*1046 FILLER_26_189
*1047 FILLER_26_195
*1048 FILLER_26_197
*1049 FILLER_26_209
*1050 FILLER_26_21
*1051 FILLER_26_221
*1052 FILLER_26_233
*1053 FILLER_26_245
*1054 FILLER_26_251
*1055 FILLER_26_253
*1056 FILLER_26_26
*1057 FILLER_26_265
*1058 FILLER_26_277
*1059 FILLER_26_289
*1060 FILLER_26_29
*1061 FILLER_26_297
*1062 FILLER_26_3
*1063 FILLER_26_39
*1064 FILLER_26_51
*1065 FILLER_26_56
*1066 FILLER_26_66
*1067 FILLER_26_70
*1068 FILLER_26_77
*1069 FILLER_26_83
*1070 FILLER_26_85
*1071 FILLER_26_90
*1072 FILLER_26_96
*1073 FILLER_27_103
*1074 FILLER_27_111
*1075 FILLER_27_113
*1076 FILLER_27_125
*1077 FILLER_27_137
*1078 FILLER_27_149
*1079 FILLER_27_15
*1080 FILLER_27_161
*1081 FILLER_27_167
*1082 FILLER_27_169
*1083 FILLER_27_173
*1084 FILLER_27_180
*1085 FILLER_27_192
*1086 FILLER_27_204
*1087 FILLER_27_21
*1088 FILLER_27_216
*1089 FILLER_27_225
*1090 FILLER_27_237
*1091 FILLER_27_249
*1092 FILLER_27_25
*1093 FILLER_27_261
*1094 FILLER_27_273
*1095 FILLER_27_279
*1096 FILLER_27_281
*1097 FILLER_27_293
*1098 FILLER_27_3
*1099 FILLER_27_37
*1100 FILLER_27_41
*1101 FILLER_27_49
*1102 FILLER_27_55
*1103 FILLER_27_57
*1104 FILLER_27_61
*1105 FILLER_27_70
*1106 FILLER_27_82
*1107 FILLER_27_90
*1108 FILLER_28_103
*1109 FILLER_28_120
*1110 FILLER_28_128
*1111 FILLER_28_138
*1112 FILLER_28_141
*1113 FILLER_28_149
*1114 FILLER_28_15
*1115 FILLER_28_153
*1116 FILLER_28_161
*1117 FILLER_28_168
*1118 FILLER_28_180
*1119 FILLER_28_192
*1120 FILLER_28_197
*1121 FILLER_28_209
*1122 FILLER_28_221
*1123 FILLER_28_233
*1124 FILLER_28_245
*1125 FILLER_28_251
*1126 FILLER_28_253
*1127 FILLER_28_265
*1128 FILLER_28_27
*1129 FILLER_28_277
*1130 FILLER_28_289
*1131 FILLER_28_29
*1132 FILLER_28_297
*1133 FILLER_28_3
*1134 FILLER_28_41
*1135 FILLER_28_53
*1136 FILLER_28_61
*1137 FILLER_28_69
*1138 FILLER_28_78
*1139 FILLER_28_85
*1140 FILLER_28_97
*1141 FILLER_29_105
*1142 FILLER_29_111
*1143 FILLER_29_113
*1144 FILLER_29_12
*1145 FILLER_29_125
*1146 FILLER_29_137
*1147 FILLER_29_149
*1148 FILLER_29_161
*1149 FILLER_29_166
*1150 FILLER_29_169
*1151 FILLER_29_177
*1152 FILLER_29_189
*1153 FILLER_29_201
*1154 FILLER_29_213
*1155 FILLER_29_221
*1156 FILLER_29_225
*1157 FILLER_29_237
*1158 FILLER_29_24
*1159 FILLER_29_249
*1160 FILLER_29_261
*1161 FILLER_29_273
*1162 FILLER_29_279
*1163 FILLER_29_281
*1164 FILLER_29_293
*1165 FILLER_29_3
*1166 FILLER_29_36
*1167 FILLER_29_40
*1168 FILLER_29_44
*1169 FILLER_29_48
*1170 FILLER_29_57
*1171 FILLER_29_69
*1172 FILLER_29_81
*1173 FILLER_29_93
*1174 FILLER_2_104
*1175 FILLER_2_116
*1176 FILLER_2_128
*1177 FILLER_2_141
*1178 FILLER_2_153
*1179 FILLER_2_165
*1180 FILLER_2_177
*1181 FILLER_2_189
*1182 FILLER_2_195
*1183 FILLER_2_197
*1184 FILLER_2_209
*1185 FILLER_2_221
*1186 FILLER_2_233
*1187 FILLER_2_245
*1188 FILLER_2_251
*1189 FILLER_2_253
*1190 FILLER_2_26
*1191 FILLER_2_265
*1192 FILLER_2_277
*1193 FILLER_2_289
*1194 FILLER_2_29
*1195 FILLER_2_297
*1196 FILLER_2_3
*1197 FILLER_2_35
*1198 FILLER_2_43
*1199 FILLER_2_65
*1200 FILLER_2_75
*1201 FILLER_2_83
*1202 FILLER_2_85
*1203 FILLER_2_9
*1204 FILLER_2_92
*1205 FILLER_30_109
*1206 FILLER_30_117
*1207 FILLER_30_126
*1208 FILLER_30_138
*1209 FILLER_30_141
*1210 FILLER_30_15
*1211 FILLER_30_153
*1212 FILLER_30_164
*1213 FILLER_30_175
*1214 FILLER_30_183
*1215 FILLER_30_190
*1216 FILLER_30_197
*1217 FILLER_30_209
*1218 FILLER_30_221
*1219 FILLER_30_233
*1220 FILLER_30_245
*1221 FILLER_30_251
*1222 FILLER_30_253
*1223 FILLER_30_265
*1224 FILLER_30_27
*1225 FILLER_30_277
*1226 FILLER_30_289
*1227 FILLER_30_29
*1228 FILLER_30_297
*1229 FILLER_30_3
*1230 FILLER_30_41
*1231 FILLER_30_53
*1232 FILLER_30_65
*1233 FILLER_30_77
*1234 FILLER_30_83
*1235 FILLER_30_85
*1236 FILLER_30_97
*1237 FILLER_31_105
*1238 FILLER_31_111
*1239 FILLER_31_113
*1240 FILLER_31_122
*1241 FILLER_31_134
*1242 FILLER_31_146
*1243 FILLER_31_15
*1244 FILLER_31_154
*1245 FILLER_31_166
*1246 FILLER_31_169
*1247 FILLER_31_185
*1248 FILLER_31_197
*1249 FILLER_31_212
*1250 FILLER_31_225
*1251 FILLER_31_237
*1252 FILLER_31_24
*1253 FILLER_31_249
*1254 FILLER_31_261
*1255 FILLER_31_273
*1256 FILLER_31_279
*1257 FILLER_31_281
*1258 FILLER_31_293
*1259 FILLER_31_3
*1260 FILLER_31_35
*1261 FILLER_31_47
*1262 FILLER_31_55
*1263 FILLER_31_57
*1264 FILLER_31_66
*1265 FILLER_31_78
*1266 FILLER_31_90
*1267 FILLER_31_98
*1268 FILLER_32_109
*1269 FILLER_32_113
*1270 FILLER_32_118
*1271 FILLER_32_130
*1272 FILLER_32_138
*1273 FILLER_32_141
*1274 FILLER_32_146
*1275 FILLER_32_15
*1276 FILLER_32_157
*1277 FILLER_32_169
*1278 FILLER_32_181
*1279 FILLER_32_190
*1280 FILLER_32_197
*1281 FILLER_32_205
*1282 FILLER_32_217
*1283 FILLER_32_229
*1284 FILLER_32_241
*1285 FILLER_32_249
*1286 FILLER_32_253
*1287 FILLER_32_265
*1288 FILLER_32_27
*1289 FILLER_32_277
*1290 FILLER_32_289
*1291 FILLER_32_29
*1292 FILLER_32_297
*1293 FILLER_32_3
*1294 FILLER_32_41
*1295 FILLER_32_53
*1296 FILLER_32_65
*1297 FILLER_32_77
*1298 FILLER_32_83
*1299 FILLER_32_85
*1300 FILLER_32_97
*1301 FILLER_33_107
*1302 FILLER_33_111
*1303 FILLER_33_113
*1304 FILLER_33_121
*1305 FILLER_33_125
*1306 FILLER_33_132
*1307 FILLER_33_139
*1308 FILLER_33_15
*1309 FILLER_33_150
*1310 FILLER_33_157
*1311 FILLER_33_165
*1312 FILLER_33_169
*1313 FILLER_33_175
*1314 FILLER_33_187
*1315 FILLER_33_194
*1316 FILLER_33_209
*1317 FILLER_33_216
*1318 FILLER_33_225
*1319 FILLER_33_237
*1320 FILLER_33_249
*1321 FILLER_33_261
*1322 FILLER_33_273
*1323 FILLER_33_279
*1324 FILLER_33_28
*1325 FILLER_33_281
*1326 FILLER_33_293
*1327 FILLER_33_3
*1328 FILLER_33_40
*1329 FILLER_33_50
*1330 FILLER_33_57
*1331 FILLER_33_67
*1332 FILLER_33_73
*1333 FILLER_33_77
*1334 FILLER_33_85
*1335 FILLER_33_93
*1336 FILLER_33_99
*1337 FILLER_34_108
*1338 FILLER_34_122
*1339 FILLER_34_128
*1340 FILLER_34_13
*1341 FILLER_34_132
*1342 FILLER_34_141
*1343 FILLER_34_147
*1344 FILLER_34_155
*1345 FILLER_34_163
*1346 FILLER_34_173
*1347 FILLER_34_181
*1348 FILLER_34_189
*1349 FILLER_34_195
*1350 FILLER_34_197
*1351 FILLER_34_201
*1352 FILLER_34_209
*1353 FILLER_34_219
*1354 FILLER_34_231
*1355 FILLER_34_243
*1356 FILLER_34_25
*1357 FILLER_34_251
*1358 FILLER_34_253
*1359 FILLER_34_265
*1360 FILLER_34_277
*1361 FILLER_34_289
*1362 FILLER_34_29
*1363 FILLER_34_297
*1364 FILLER_34_3
*1365 FILLER_34_41
*1366 FILLER_34_45
*1367 FILLER_34_54
*1368 FILLER_34_66
*1369 FILLER_34_78
*1370 FILLER_34_85
*1371 FILLER_34_96
*1372 FILLER_35_110
*1373 FILLER_35_113
*1374 FILLER_35_125
*1375 FILLER_35_136
*1376 FILLER_35_146
*1377 FILLER_35_15
*1378 FILLER_35_157
*1379 FILLER_35_166
*1380 FILLER_35_169
*1381 FILLER_35_179
*1382 FILLER_35_190
*1383 FILLER_35_198
*1384 FILLER_35_206
*1385 FILLER_35_215
*1386 FILLER_35_223
*1387 FILLER_35_225
*1388 FILLER_35_23
*1389 FILLER_35_231
*1390 FILLER_35_236
*1391 FILLER_35_248
*1392 FILLER_35_260
*1393 FILLER_35_272
*1394 FILLER_35_281
*1395 FILLER_35_293
*1396 FILLER_35_3
*1397 FILLER_35_33
*1398 FILLER_35_48
*1399 FILLER_35_57
*1400 FILLER_35_62
*1401 FILLER_35_74
*1402 FILLER_35_86
*1403 FILLER_35_98
*1404 FILLER_36_109
*1405 FILLER_36_12
*1406 FILLER_36_127
*1407 FILLER_36_139
*1408 FILLER_36_141
*1409 FILLER_36_153
*1410 FILLER_36_160
*1411 FILLER_36_172
*1412 FILLER_36_182
*1413 FILLER_36_194
*1414 FILLER_36_197
*1415 FILLER_36_204
*1416 FILLER_36_21
*1417 FILLER_36_223
*1418 FILLER_36_233
*1419 FILLER_36_245
*1420 FILLER_36_251
*1421 FILLER_36_253
*1422 FILLER_36_265
*1423 FILLER_36_27
*1424 FILLER_36_277
*1425 FILLER_36_289
*1426 FILLER_36_29
*1427 FILLER_36_297
*1428 FILLER_36_3
*1429 FILLER_36_39
*1430 FILLER_36_51
*1431 FILLER_36_63
*1432 FILLER_36_69
*1433 FILLER_36_7
*1434 FILLER_36_77
*1435 FILLER_36_82
*1436 FILLER_36_85
*1437 FILLER_36_97
*1438 FILLER_37_100
*1439 FILLER_37_113
*1440 FILLER_37_121
*1441 FILLER_37_130
*1442 FILLER_37_142
*1443 FILLER_37_15
*1444 FILLER_37_150
*1445 FILLER_37_157
*1446 FILLER_37_164
*1447 FILLER_37_169
*1448 FILLER_37_179
*1449 FILLER_37_191
*1450 FILLER_37_197
*1451 FILLER_37_206
*1452 FILLER_37_215
*1453 FILLER_37_223
*1454 FILLER_37_225
*1455 FILLER_37_233
*1456 FILLER_37_237
*1457 FILLER_37_249
*1458 FILLER_37_261
*1459 FILLER_37_27
*1460 FILLER_37_273
*1461 FILLER_37_279
*1462 FILLER_37_281
*1463 FILLER_37_293
*1464 FILLER_37_3
*1465 FILLER_37_39
*1466 FILLER_37_51
*1467 FILLER_37_55
*1468 FILLER_37_57
*1469 FILLER_37_69
*1470 FILLER_37_7
*1471 FILLER_37_81
*1472 FILLER_37_89
*1473 FILLER_38_107
*1474 FILLER_38_12
*1475 FILLER_38_134
*1476 FILLER_38_141
*1477 FILLER_38_146
*1478 FILLER_38_158
*1479 FILLER_38_169
*1480 FILLER_38_179
*1481 FILLER_38_191
*1482 FILLER_38_195
*1483 FILLER_38_197
*1484 FILLER_38_207
*1485 FILLER_38_220
*1486 FILLER_38_227
*1487 FILLER_38_233
*1488 FILLER_38_24
*1489 FILLER_38_241
*1490 FILLER_38_249
*1491 FILLER_38_253
*1492 FILLER_38_265
*1493 FILLER_38_277
*1494 FILLER_38_289
*1495 FILLER_38_29
*1496 FILLER_38_297
*1497 FILLER_38_3
*1498 FILLER_38_41
*1499 FILLER_38_48
*1500 FILLER_38_60
*1501 FILLER_38_72
*1502 FILLER_38_77
*1503 FILLER_38_83
*1504 FILLER_38_85
*1505 FILLER_38_95
*1506 FILLER_39_103
*1507 FILLER_39_111
*1508 FILLER_39_113
*1509 FILLER_39_124
*1510 FILLER_39_132
*1511 FILLER_39_137
*1512 FILLER_39_149
*1513 FILLER_39_15
*1514 FILLER_39_153
*1515 FILLER_39_166
*1516 FILLER_39_169
*1517 FILLER_39_176
*1518 FILLER_39_189
*1519 FILLER_39_197
*1520 FILLER_39_206
*1521 FILLER_39_216
*1522 FILLER_39_225
*1523 FILLER_39_229
*1524 FILLER_39_237
*1525 FILLER_39_249
*1526 FILLER_39_261
*1527 FILLER_39_273
*1528 FILLER_39_279
*1529 FILLER_39_281
*1530 FILLER_39_293
*1531 FILLER_39_3
*1532 FILLER_39_30
*1533 FILLER_39_42
*1534 FILLER_39_54
*1535 FILLER_39_57
*1536 FILLER_39_65
*1537 FILLER_39_77
*1538 FILLER_39_89
*1539 FILLER_3_111
*1540 FILLER_3_113
*1541 FILLER_3_122
*1542 FILLER_3_134
*1543 FILLER_3_146
*1544 FILLER_3_158
*1545 FILLER_3_166
*1546 FILLER_3_169
*1547 FILLER_3_181
*1548 FILLER_3_193
*1549 FILLER_3_205
*1550 FILLER_3_217
*1551 FILLER_3_223
*1552 FILLER_3_225
*1553 FILLER_3_237
*1554 FILLER_3_249
*1555 FILLER_3_25
*1556 FILLER_3_261
*1557 FILLER_3_273
*1558 FILLER_3_279
*1559 FILLER_3_281
*1560 FILLER_3_293
*1561 FILLER_3_3
*1562 FILLER_3_45
*1563 FILLER_3_53
*1564 FILLER_3_57
*1565 FILLER_3_75
*1566 FILLER_3_87
*1567 FILLER_3_99
*1568 FILLER_40_109
*1569 FILLER_40_117
*1570 FILLER_40_125
*1571 FILLER_40_129
*1572 FILLER_40_135
*1573 FILLER_40_139
*1574 FILLER_40_14
*1575 FILLER_40_141
*1576 FILLER_40_148
*1577 FILLER_40_154
*1578 FILLER_40_163
*1579 FILLER_40_177
*1580 FILLER_40_184
*1581 FILLER_40_197
*1582 FILLER_40_207
*1583 FILLER_40_215
*1584 FILLER_40_223
*1585 FILLER_40_231
*1586 FILLER_40_250
*1587 FILLER_40_253
*1588 FILLER_40_26
*1589 FILLER_40_265
*1590 FILLER_40_277
*1591 FILLER_40_289
*1592 FILLER_40_29
*1593 FILLER_40_297
*1594 FILLER_40_3
*1595 FILLER_40_40
*1596 FILLER_40_53
*1597 FILLER_40_65
*1598 FILLER_40_77
*1599 FILLER_40_83
*1600 FILLER_40_85
*1601 FILLER_40_97
*1602 FILLER_41_10
*1603 FILLER_41_106
*1604 FILLER_41_113
*1605 FILLER_41_122
*1606 FILLER_41_136
*1607 FILLER_41_149
*1608 FILLER_41_163
*1609 FILLER_41_167
*1610 FILLER_41_169
*1611 FILLER_41_178
*1612 FILLER_41_186
*1613 FILLER_41_192
*1614 FILLER_41_200
*1615 FILLER_41_205
*1616 FILLER_41_214
*1617 FILLER_41_22
*1618 FILLER_41_221
*1619 FILLER_41_225
*1620 FILLER_41_233
*1621 FILLER_41_245
*1622 FILLER_41_257
*1623 FILLER_41_269
*1624 FILLER_41_277
*1625 FILLER_41_281
*1626 FILLER_41_293
*1627 FILLER_41_3
*1628 FILLER_41_34
*1629 FILLER_41_46
*1630 FILLER_41_54
*1631 FILLER_41_57
*1632 FILLER_41_69
*1633 FILLER_41_81
*1634 FILLER_41_85
*1635 FILLER_41_92
*1636 FILLER_42_103
*1637 FILLER_42_116
*1638 FILLER_42_120
*1639 FILLER_42_127
*1640 FILLER_42_135
*1641 FILLER_42_139
*1642 FILLER_42_141
*1643 FILLER_42_15
*1644 FILLER_42_151
*1645 FILLER_42_157
*1646 FILLER_42_165
*1647 FILLER_42_173
*1648 FILLER_42_182
*1649 FILLER_42_194
*1650 FILLER_42_197
*1651 FILLER_42_210
*1652 FILLER_42_218
*1653 FILLER_42_228
*1654 FILLER_42_238
*1655 FILLER_42_250
*1656 FILLER_42_253
*1657 FILLER_42_265
*1658 FILLER_42_27
*1659 FILLER_42_277
*1660 FILLER_42_289
*1661 FILLER_42_29
*1662 FILLER_42_297
*1663 FILLER_42_3
*1664 FILLER_42_41
*1665 FILLER_42_49
*1666 FILLER_42_56
*1667 FILLER_42_64
*1668 FILLER_42_74
*1669 FILLER_42_82
*1670 FILLER_42_85
*1671 FILLER_42_93
*1672 FILLER_43_106
*1673 FILLER_43_113
*1674 FILLER_43_13
*1675 FILLER_43_130
*1676 FILLER_43_143
*1677 FILLER_43_153
*1678 FILLER_43_164
*1679 FILLER_43_169
*1680 FILLER_43_184
*1681 FILLER_43_190
*1682 FILLER_43_194
*1683 FILLER_43_202
*1684 FILLER_43_212
*1685 FILLER_43_221
*1686 FILLER_43_225
*1687 FILLER_43_237
*1688 FILLER_43_24
*1689 FILLER_43_249
*1690 FILLER_43_263
*1691 FILLER_43_275
*1692 FILLER_43_279
*1693 FILLER_43_281
*1694 FILLER_43_293
*1695 FILLER_43_3
*1696 FILLER_43_30
*1697 FILLER_43_36
*1698 FILLER_43_48
*1699 FILLER_43_57
*1700 FILLER_43_69
*1701 FILLER_43_81
*1702 FILLER_43_93
*1703 FILLER_43_99
*1704 FILLER_44_109
*1705 FILLER_44_121
*1706 FILLER_44_133
*1707 FILLER_44_139
*1708 FILLER_44_141
*1709 FILLER_44_147
*1710 FILLER_44_15
*1711 FILLER_44_160
*1712 FILLER_44_171
*1713 FILLER_44_185
*1714 FILLER_44_193
*1715 FILLER_44_197
*1716 FILLER_44_207
*1717 FILLER_44_214
*1718 FILLER_44_221
*1719 FILLER_44_237
*1720 FILLER_44_248
*1721 FILLER_44_253
*1722 FILLER_44_265
*1723 FILLER_44_27
*1724 FILLER_44_277
*1725 FILLER_44_289
*1726 FILLER_44_29
*1727 FILLER_44_297
*1728 FILLER_44_3
*1729 FILLER_44_41
*1730 FILLER_44_50
*1731 FILLER_44_54
*1732 FILLER_44_63
*1733 FILLER_44_75
*1734 FILLER_44_83
*1735 FILLER_44_85