*SPEF "ieee 1481-1999"
*DESIGN "tt2_tholin_multiplier"
*DATE "11:11:11 Fri 11 11, 1111"
*VENDOR "OpenRCX"
*PROGRAM "Parallel Extraction"
*VERSION "1.0"
*DESIGN_FLOW "NAME_SCOPE LOCAL" "PIN_CAP NONE"
*DIVIDER /
*DELIMITER :
*BUS_DELIMITER []
*T_UNIT 1 NS
*C_UNIT 1 PF
*R_UNIT 1 OHM
*L_UNIT 1 HENRY

*NAME_MAP
*1 io_in[0]
*2 io_in[1]
*3 io_in[2]
*4 io_in[3]
*5 io_in[4]
*6 io_in[5]
*7 io_in[6]
*8 io_in[7]
*9 io_out[0]
*10 io_out[1]
*11 io_out[2]
*12 io_out[3]
*13 io_out[4]
*14 io_out[5]
*15 io_out[6]
*16 io_out[7]
*19 CIRCUIT_0\.R1
*20 CIRCUIT_0\.R2
*21 CIRCUIT_0\.R3
*22 CIRCUIT_0\.R4
*23 CIRCUIT_0\.R5
*24 CIRCUIT_0\.R6
*25 CIRCUIT_0\.R7
*26 _000_
*27 _001_
*28 _002_
*29 _003_
*30 _004_
*31 _005_
*32 _006_
*33 _007_
*34 _008_
*35 _009_
*36 _010_
*37 _011_
*38 _012_
*39 _013_
*40 _014_
*41 _015_
*42 _016_
*43 _017_
*44 _018_
*45 _019_
*46 _020_
*47 _021_
*48 _022_
*49 _023_
*50 _024_
*51 _025_
*52 _026_
*53 _027_
*54 _028_
*55 _029_
*56 _030_
*57 _031_
*58 _032_
*59 _033_
*60 _034_
*61 _035_
*62 _036_
*63 _037_
*64 _038_
*65 _039_
*66 _040_
*67 _041_
*68 _042_
*69 _044_
*70 _045_
*71 _046_
*72 _047_
*73 _048_
*74 _049_
*75 _050_
*76 _051_
*77 clknet_0__000_
*78 clknet_0__005_
*79 clknet_0__007_
*80 clknet_0__008_
*81 clknet_0__009_
*82 clknet_0__010_
*83 clknet_0__014_
*84 clknet_0__015_
*85 clknet_0__019_
*86 clknet_0__020_
*87 clknet_0__022_
*88 clknet_0__023_
*89 clknet_0__024_
*90 clknet_0__026_
*91 clknet_0__027_
*92 clknet_0__028_
*93 clknet_0__030_
*94 clknet_0__031_
*95 clknet_0__032_
*96 clknet_0__033_
*97 clknet_0__035_
*98 clknet_0__036_
*99 clknet_0__040_
*100 clknet_0__041_
*101 clknet_0__042_
*102 clknet_0__045_
*103 clknet_0__046_
*104 clknet_0__048_
*105 clknet_0__049_
*106 clknet_0__050_
*107 clknet_0_io_in[0]
*108 clknet_1_0__leaf__000_
*109 clknet_1_0__leaf__005_
*110 clknet_1_0__leaf__007_
*111 clknet_1_0__leaf__008_
*112 clknet_1_0__leaf__009_
*113 clknet_1_0__leaf__010_
*114 clknet_1_0__leaf__014_
*115 clknet_1_0__leaf__015_
*116 clknet_1_0__leaf__019_
*117 clknet_1_0__leaf__020_
*118 clknet_1_0__leaf__022_
*119 clknet_1_0__leaf__023_
*120 clknet_1_0__leaf__024_
*121 clknet_1_0__leaf__026_
*122 clknet_1_0__leaf__027_
*123 clknet_1_0__leaf__028_
*124 clknet_1_0__leaf__030_
*125 clknet_1_0__leaf__031_
*126 clknet_1_0__leaf__032_
*127 clknet_1_0__leaf__033_
*128 clknet_1_0__leaf__035_
*129 clknet_1_0__leaf__036_
*130 clknet_1_0__leaf__040_
*131 clknet_1_0__leaf__041_
*132 clknet_1_0__leaf__042_
*133 clknet_1_0__leaf__045_
*134 clknet_1_0__leaf__046_
*135 clknet_1_0__leaf__048_
*136 clknet_1_0__leaf__049_
*137 clknet_1_0__leaf__050_
*138 clknet_1_0__leaf_io_in[0]
*139 clknet_1_1__leaf__000_
*140 clknet_1_1__leaf__005_
*141 clknet_1_1__leaf__007_
*142 clknet_1_1__leaf__008_
*143 clknet_1_1__leaf__009_
*144 clknet_1_1__leaf__010_
*145 clknet_1_1__leaf__014_
*146 clknet_1_1__leaf__015_
*147 clknet_1_1__leaf__019_
*148 clknet_1_1__leaf__020_
*149 clknet_1_1__leaf__022_
*150 clknet_1_1__leaf__023_
*151 clknet_1_1__leaf__024_
*152 clknet_1_1__leaf__026_
*153 clknet_1_1__leaf__027_
*154 clknet_1_1__leaf__028_
*155 clknet_1_1__leaf__030_
*156 clknet_1_1__leaf__031_
*157 clknet_1_1__leaf__032_
*158 clknet_1_1__leaf__033_
*159 clknet_1_1__leaf__035_
*160 clknet_1_1__leaf__036_
*161 clknet_1_1__leaf__040_
*162 clknet_1_1__leaf__041_
*163 clknet_1_1__leaf__042_
*164 clknet_1_1__leaf__045_
*165 clknet_1_1__leaf__046_
*166 clknet_1_1__leaf__048_
*167 clknet_1_1__leaf__049_
*168 clknet_1_1__leaf__050_
*169 clknet_1_1__leaf_io_in[0]
*170 net1
*171 net2
*172 net3
*173 net4
*174 net5
*175 net6
*176 net7
*177 net8
*178 net9
*179 FILLER_0_109
*180 FILLER_0_113
*181 FILLER_0_125
*182 FILLER_0_137
*183 FILLER_0_141
*184 FILLER_0_15
*185 FILLER_0_153
*186 FILLER_0_165
*187 FILLER_0_169
*188 FILLER_0_181
*189 FILLER_0_193
*190 FILLER_0_197
*191 FILLER_0_209
*192 FILLER_0_221
*193 FILLER_0_225
*194 FILLER_0_237
*195 FILLER_0_249
*196 FILLER_0_253
*197 FILLER_0_265
*198 FILLER_0_27
*199 FILLER_0_277
*200 FILLER_0_281
*201 FILLER_0_29
*202 FILLER_0_293
*203 FILLER_0_3
*204 FILLER_0_41
*205 FILLER_0_53
*206 FILLER_0_57
*207 FILLER_0_69
*208 FILLER_0_81
*209 FILLER_0_85
*210 FILLER_0_97
*211 FILLER_10_109
*212 FILLER_10_121
*213 FILLER_10_133
*214 FILLER_10_139
*215 FILLER_10_141
*216 FILLER_10_15
*217 FILLER_10_153
*218 FILLER_10_165
*219 FILLER_10_177
*220 FILLER_10_189
*221 FILLER_10_195
*222 FILLER_10_197
*223 FILLER_10_209
*224 FILLER_10_221
*225 FILLER_10_233
*226 FILLER_10_245
*227 FILLER_10_251
*228 FILLER_10_253
*229 FILLER_10_265
*230 FILLER_10_27
*231 FILLER_10_277
*232 FILLER_10_289
*233 FILLER_10_29
*234 FILLER_10_297
*235 FILLER_10_3
*236 FILLER_10_41
*237 FILLER_10_53
*238 FILLER_10_65
*239 FILLER_10_77
*240 FILLER_10_83
*241 FILLER_10_85
*242 FILLER_10_97
*243 FILLER_11_105
*244 FILLER_11_111
*245 FILLER_11_113
*246 FILLER_11_125
*247 FILLER_11_137
*248 FILLER_11_149
*249 FILLER_11_15
*250 FILLER_11_161
*251 FILLER_11_167
*252 FILLER_11_169
*253 FILLER_11_181
*254 FILLER_11_193
*255 FILLER_11_205
*256 FILLER_11_217
*257 FILLER_11_223
*258 FILLER_11_225
*259 FILLER_11_237
*260 FILLER_11_249
*261 FILLER_11_261
*262 FILLER_11_27
*263 FILLER_11_273
*264 FILLER_11_279
*265 FILLER_11_281
*266 FILLER_11_293
*267 FILLER_11_3
*268 FILLER_11_39
*269 FILLER_11_51
*270 FILLER_11_55
*271 FILLER_11_57
*272 FILLER_11_69
*273 FILLER_11_81
*274 FILLER_11_93
*275 FILLER_12_109
*276 FILLER_12_121
*277 FILLER_12_133
*278 FILLER_12_139
*279 FILLER_12_141
*280 FILLER_12_153
*281 FILLER_12_165
*282 FILLER_12_177
*283 FILLER_12_189
*284 FILLER_12_195
*285 FILLER_12_197
*286 FILLER_12_209
*287 FILLER_12_21
*288 FILLER_12_221
*289 FILLER_12_233
*290 FILLER_12_245
*291 FILLER_12_251
*292 FILLER_12_253
*293 FILLER_12_265
*294 FILLER_12_27
*295 FILLER_12_277
*296 FILLER_12_289
*297 FILLER_12_29
*298 FILLER_12_297
*299 FILLER_12_3
*300 FILLER_12_41
*301 FILLER_12_53
*302 FILLER_12_65
*303 FILLER_12_77
*304 FILLER_12_83
*305 FILLER_12_85
*306 FILLER_12_9
*307 FILLER_12_97
*308 FILLER_13_105
*309 FILLER_13_111
*310 FILLER_13_113
*311 FILLER_13_125
*312 FILLER_13_137
*313 FILLER_13_149
*314 FILLER_13_15
*315 FILLER_13_161
*316 FILLER_13_167
*317 FILLER_13_169
*318 FILLER_13_181
*319 FILLER_13_193
*320 FILLER_13_205
*321 FILLER_13_217
*322 FILLER_13_223
*323 FILLER_13_225
*324 FILLER_13_237
*325 FILLER_13_249
*326 FILLER_13_261
*327 FILLER_13_27
*328 FILLER_13_273
*329 FILLER_13_279
*330 FILLER_13_281
*331 FILLER_13_293
*332 FILLER_13_3
*333 FILLER_13_39
*334 FILLER_13_51
*335 FILLER_13_55
*336 FILLER_13_57
*337 FILLER_13_69
*338 FILLER_13_81
*339 FILLER_13_93
*340 FILLER_14_109
*341 FILLER_14_121
*342 FILLER_14_133
*343 FILLER_14_139
*344 FILLER_14_141
*345 FILLER_14_15
*346 FILLER_14_153
*347 FILLER_14_165
*348 FILLER_14_177
*349 FILLER_14_189
*350 FILLER_14_195
*351 FILLER_14_197
*352 FILLER_14_209
*353 FILLER_14_221
*354 FILLER_14_233
*355 FILLER_14_245
*356 FILLER_14_251
*357 FILLER_14_253
*358 FILLER_14_265
*359 FILLER_14_27
*360 FILLER_14_277
*361 FILLER_14_289
*362 FILLER_14_29
*363 FILLER_14_297
*364 FILLER_14_3
*365 FILLER_14_41
*366 FILLER_14_53
*367 FILLER_14_65
*368 FILLER_14_77
*369 FILLER_14_83
*370 FILLER_14_85
*371 FILLER_14_97
*372 FILLER_15_105
*373 FILLER_15_111
*374 FILLER_15_113
*375 FILLER_15_125
*376 FILLER_15_137
*377 FILLER_15_149
*378 FILLER_15_15
*379 FILLER_15_161
*380 FILLER_15_167
*381 FILLER_15_169
*382 FILLER_15_181
*383 FILLER_15_193
*384 FILLER_15_205
*385 FILLER_15_217
*386 FILLER_15_223
*387 FILLER_15_225
*388 FILLER_15_237
*389 FILLER_15_249
*390 FILLER_15_261
*391 FILLER_15_27
*392 FILLER_15_273
*393 FILLER_15_279
*394 FILLER_15_281
*395 FILLER_15_293
*396 FILLER_15_3
*397 FILLER_15_39
*398 FILLER_15_51
*399 FILLER_15_55
*400 FILLER_15_57
*401 FILLER_15_69
*402 FILLER_15_81
*403 FILLER_15_93
*404 FILLER_16_109
*405 FILLER_16_11
*406 FILLER_16_121
*407 FILLER_16_133
*408 FILLER_16_139
*409 FILLER_16_141
*410 FILLER_16_153
*411 FILLER_16_165
*412 FILLER_16_177
*413 FILLER_16_189
*414 FILLER_16_195
*415 FILLER_16_197
*416 FILLER_16_209
*417 FILLER_16_221
*418 FILLER_16_23
*419 FILLER_16_233
*420 FILLER_16_245
*421 FILLER_16_251
*422 FILLER_16_253
*423 FILLER_16_265
*424 FILLER_16_27
*425 FILLER_16_277
*426 FILLER_16_289
*427 FILLER_16_29
*428 FILLER_16_297
*429 FILLER_16_3
*430 FILLER_16_41
*431 FILLER_16_53
*432 FILLER_16_65
*433 FILLER_16_77
*434 FILLER_16_83
*435 FILLER_16_85
*436 FILLER_16_97
*437 FILLER_17_105
*438 FILLER_17_111
*439 FILLER_17_113
*440 FILLER_17_125
*441 FILLER_17_137
*442 FILLER_17_149
*443 FILLER_17_15
*444 FILLER_17_161
*445 FILLER_17_167
*446 FILLER_17_169
*447 FILLER_17_181
*448 FILLER_17_193
*449 FILLER_17_205
*450 FILLER_17_217
*451 FILLER_17_223
*452 FILLER_17_225
*453 FILLER_17_237
*454 FILLER_17_249
*455 FILLER_17_261
*456 FILLER_17_27
*457 FILLER_17_273
*458 FILLER_17_279
*459 FILLER_17_281
*460 FILLER_17_293
*461 FILLER_17_3
*462 FILLER_17_39
*463 FILLER_17_51
*464 FILLER_17_55
*465 FILLER_17_57
*466 FILLER_17_69
*467 FILLER_17_81
*468 FILLER_17_93
*469 FILLER_18_10
*470 FILLER_18_109
*471 FILLER_18_121
*472 FILLER_18_133
*473 FILLER_18_139
*474 FILLER_18_141
*475 FILLER_18_153
*476 FILLER_18_165
*477 FILLER_18_177
*478 FILLER_18_189
*479 FILLER_18_195
*480 FILLER_18_197
*481 FILLER_18_209
*482 FILLER_18_221
*483 FILLER_18_233
*484 FILLER_18_245
*485 FILLER_18_251
*486 FILLER_18_253
*487 FILLER_18_26
*488 FILLER_18_265
*489 FILLER_18_277
*490 FILLER_18_289
*491 FILLER_18_29
*492 FILLER_18_297
*493 FILLER_18_3
*494 FILLER_18_41
*495 FILLER_18_53
*496 FILLER_18_65
*497 FILLER_18_77
*498 FILLER_18_83
*499 FILLER_18_85
*500 FILLER_18_97
*501 FILLER_19_105
*502 FILLER_19_111
*503 FILLER_19_113
*504 FILLER_19_125
*505 FILLER_19_137
*506 FILLER_19_149
*507 FILLER_19_161
*508 FILLER_19_167
*509 FILLER_19_169
*510 FILLER_19_17
*511 FILLER_19_181
*512 FILLER_19_193
*513 FILLER_19_205
*514 FILLER_19_217
*515 FILLER_19_223
*516 FILLER_19_225
*517 FILLER_19_237
*518 FILLER_19_249
*519 FILLER_19_261
*520 FILLER_19_273
*521 FILLER_19_279
*522 FILLER_19_281
*523 FILLER_19_29
*524 FILLER_19_293
*525 FILLER_19_3
*526 FILLER_19_41
*527 FILLER_19_53
*528 FILLER_19_57
*529 FILLER_19_69
*530 FILLER_19_81
*531 FILLER_19_93
*532 FILLER_1_105
*533 FILLER_1_111
*534 FILLER_1_113
*535 FILLER_1_125
*536 FILLER_1_137
*537 FILLER_1_149
*538 FILLER_1_15
*539 FILLER_1_161
*540 FILLER_1_167
*541 FILLER_1_169
*542 FILLER_1_181
*543 FILLER_1_193
*544 FILLER_1_205
*545 FILLER_1_217
*546 FILLER_1_223
*547 FILLER_1_225
*548 FILLER_1_237
*549 FILLER_1_249
*550 FILLER_1_261
*551 FILLER_1_27
*552 FILLER_1_273
*553 FILLER_1_279
*554 FILLER_1_281
*555 FILLER_1_293
*556 FILLER_1_3
*557 FILLER_1_39
*558 FILLER_1_51
*559 FILLER_1_55
*560 FILLER_1_57
*561 FILLER_1_69
*562 FILLER_1_81
*563 FILLER_1_93
*564 FILLER_20_109
*565 FILLER_20_121
*566 FILLER_20_13
*567 FILLER_20_133
*568 FILLER_20_139
*569 FILLER_20_141
*570 FILLER_20_153
*571 FILLER_20_165
*572 FILLER_20_17
*573 FILLER_20_177
*574 FILLER_20_189
*575 FILLER_20_195
*576 FILLER_20_197
*577 FILLER_20_209
*578 FILLER_20_221
*579 FILLER_20_233
*580 FILLER_20_245
*581 FILLER_20_25
*582 FILLER_20_251
*583 FILLER_20_253
*584 FILLER_20_265
*585 FILLER_20_277
*586 FILLER_20_289
*587 FILLER_20_29
*588 FILLER_20_297
*589 FILLER_20_3
*590 FILLER_20_41
*591 FILLER_20_53
*592 FILLER_20_65
*593 FILLER_20_77
*594 FILLER_20_83
*595 FILLER_20_85
*596 FILLER_20_9
*597 FILLER_20_97
*598 FILLER_21_105
*599 FILLER_21_111
*600 FILLER_21_113
*601 FILLER_21_125
*602 FILLER_21_137
*603 FILLER_21_149
*604 FILLER_21_15
*605 FILLER_21_161
*606 FILLER_21_167
*607 FILLER_21_169
*608 FILLER_21_181
*609 FILLER_21_193
*610 FILLER_21_205
*611 FILLER_21_217
*612 FILLER_21_223
*613 FILLER_21_225
*614 FILLER_21_237
*615 FILLER_21_249
*616 FILLER_21_261
*617 FILLER_21_27
*618 FILLER_21_273
*619 FILLER_21_279
*620 FILLER_21_281
*621 FILLER_21_293
*622 FILLER_21_3
*623 FILLER_21_39
*624 FILLER_21_51
*625 FILLER_21_55
*626 FILLER_21_57
*627 FILLER_21_69
*628 FILLER_21_81
*629 FILLER_21_93
*630 FILLER_22_109
*631 FILLER_22_121
*632 FILLER_22_133
*633 FILLER_22_139
*634 FILLER_22_141
*635 FILLER_22_15
*636 FILLER_22_153
*637 FILLER_22_165
*638 FILLER_22_177
*639 FILLER_22_189
*640 FILLER_22_195
*641 FILLER_22_197
*642 FILLER_22_209
*643 FILLER_22_221
*644 FILLER_22_233
*645 FILLER_22_245
*646 FILLER_22_251
*647 FILLER_22_253
*648 FILLER_22_265
*649 FILLER_22_27
*650 FILLER_22_277
*651 FILLER_22_289
*652 FILLER_22_29
*653 FILLER_22_297
*654 FILLER_22_3
*655 FILLER_22_41
*656 FILLER_22_53
*657 FILLER_22_65
*658 FILLER_22_77
*659 FILLER_22_83
*660 FILLER_22_85
*661 FILLER_22_97
*662 FILLER_23_105
*663 FILLER_23_111
*664 FILLER_23_113
*665 FILLER_23_125
*666 FILLER_23_137
*667 FILLER_23_149
*668 FILLER_23_16
*669 FILLER_23_161
*670 FILLER_23_167
*671 FILLER_23_169
*672 FILLER_23_181
*673 FILLER_23_193
*674 FILLER_23_205
*675 FILLER_23_217
*676 FILLER_23_223
*677 FILLER_23_225
*678 FILLER_23_237
*679 FILLER_23_249
*680 FILLER_23_261
*681 FILLER_23_273
*682 FILLER_23_279
*683 FILLER_23_28
*684 FILLER_23_281
*685 FILLER_23_293
*686 FILLER_23_3
*687 FILLER_23_40
*688 FILLER_23_52
*689 FILLER_23_57
*690 FILLER_23_69
*691 FILLER_23_81
*692 FILLER_23_9
*693 FILLER_23_93
*694 FILLER_24_109
*695 FILLER_24_12
*696 FILLER_24_121
*697 FILLER_24_133
*698 FILLER_24_139
*699 FILLER_24_141
*700 FILLER_24_153
*701 FILLER_24_165
*702 FILLER_24_177
*703 FILLER_24_189
*704 FILLER_24_19
*705 FILLER_24_195
*706 FILLER_24_197
*707 FILLER_24_209
*708 FILLER_24_221
*709 FILLER_24_233
*710 FILLER_24_245
*711 FILLER_24_251
*712 FILLER_24_253
*713 FILLER_24_265
*714 FILLER_24_27
*715 FILLER_24_277
*716 FILLER_24_289
*717 FILLER_24_29
*718 FILLER_24_297
*719 FILLER_24_3
*720 FILLER_24_41
*721 FILLER_24_53
*722 FILLER_24_65
*723 FILLER_24_77
*724 FILLER_24_83
*725 FILLER_24_85
*726 FILLER_24_97
*727 FILLER_25_10
*728 FILLER_25_110
*729 FILLER_25_113
*730 FILLER_25_125
*731 FILLER_25_137
*732 FILLER_25_149
*733 FILLER_25_161
*734 FILLER_25_167
*735 FILLER_25_169
*736 FILLER_25_18
*737 FILLER_25_181
*738 FILLER_25_193
*739 FILLER_25_205
*740 FILLER_25_217
*741 FILLER_25_223
*742 FILLER_25_225
*743 FILLER_25_237
*744 FILLER_25_249
*745 FILLER_25_25
*746 FILLER_25_261
*747 FILLER_25_273
*748 FILLER_25_279
*749 FILLER_25_281
*750 FILLER_25_293
*751 FILLER_25_3
*752 FILLER_25_37
*753 FILLER_25_49
*754 FILLER_25_55
*755 FILLER_25_57
*756 FILLER_25_62
*757 FILLER_25_74
*758 FILLER_25_86
*759 FILLER_25_98
*760 FILLER_26_109
*761 FILLER_26_121
*762 FILLER_26_133
*763 FILLER_26_139
*764 FILLER_26_141
*765 FILLER_26_153
*766 FILLER_26_165
*767 FILLER_26_177
*768 FILLER_26_189
*769 FILLER_26_195
*770 FILLER_26_197
*771 FILLER_26_209
*772 FILLER_26_221
*773 FILLER_26_233
*774 FILLER_26_245
*775 FILLER_26_25
*776 FILLER_26_251
*777 FILLER_26_253
*778 FILLER_26_265
*779 FILLER_26_277
*780 FILLER_26_289
*781 FILLER_26_29
*782 FILLER_26_297
*783 FILLER_26_3
*784 FILLER_26_41
*785 FILLER_26_53
*786 FILLER_26_65
*787 FILLER_26_77
*788 FILLER_26_83
*789 FILLER_26_85
*790 FILLER_26_97
*791 FILLER_27_105
*792 FILLER_27_111
*793 FILLER_27_113
*794 FILLER_27_125
*795 FILLER_27_137
*796 FILLER_27_149
*797 FILLER_27_161
*798 FILLER_27_167
*799 FILLER_27_169
*800 FILLER_27_181
*801 FILLER_27_193
*802 FILLER_27_205
*803 FILLER_27_217
*804 FILLER_27_223
*805 FILLER_27_225
*806 FILLER_27_237
*807 FILLER_27_249
*808 FILLER_27_25
*809 FILLER_27_261
*810 FILLER_27_273
*811 FILLER_27_279
*812 FILLER_27_281
*813 FILLER_27_293
*814 FILLER_27_3
*815 FILLER_27_32
*816 FILLER_27_44
*817 FILLER_27_57
*818 FILLER_27_69
*819 FILLER_27_81
*820 FILLER_27_93
*821 FILLER_28_109
*822 FILLER_28_121
*823 FILLER_28_133
*824 FILLER_28_139
*825 FILLER_28_141
*826 FILLER_28_15
*827 FILLER_28_153
*828 FILLER_28_165
*829 FILLER_28_177
*830 FILLER_28_189
*831 FILLER_28_195
*832 FILLER_28_197
*833 FILLER_28_209
*834 FILLER_28_221
*835 FILLER_28_23
*836 FILLER_28_233
*837 FILLER_28_245
*838 FILLER_28_251
*839 FILLER_28_253
*840 FILLER_28_265
*841 FILLER_28_27
*842 FILLER_28_277
*843 FILLER_28_289
*844 FILLER_28_29
*845 FILLER_28_297
*846 FILLER_28_3
*847 FILLER_28_41
*848 FILLER_28_53
*849 FILLER_28_65
*850 FILLER_28_77
*851 FILLER_28_83
*852 FILLER_28_85
*853 FILLER_28_97
*854 FILLER_29_105
*855 FILLER_29_111
*856 FILLER_29_113
*857 FILLER_29_125
*858 FILLER_29_137
*859 FILLER_29_149
*860 FILLER_29_161
*861 FILLER_29_167
*862 FILLER_29_169
*863 FILLER_29_181
*864 FILLER_29_193
*865 FILLER_29_205
*866 FILLER_29_217
*867 FILLER_29_223
*868 FILLER_29_225
*869 FILLER_29_237
*870 FILLER_29_249
*871 FILLER_29_25
*872 FILLER_29_261
*873 FILLER_29_273
*874 FILLER_29_279
*875 FILLER_29_281
*876 FILLER_29_293
*877 FILLER_29_3
*878 FILLER_29_32
*879 FILLER_29_39
*880 FILLER_29_51
*881 FILLER_29_55
*882 FILLER_29_57
*883 FILLER_29_69
*884 FILLER_29_81
*885 FILLER_29_93
*886 FILLER_2_109
*887 FILLER_2_121
*888 FILLER_2_133
*889 FILLER_2_139
*890 FILLER_2_141
*891 FILLER_2_15
*892 FILLER_2_153
*893 FILLER_2_165
*894 FILLER_2_177
*895 FILLER_2_189
*896 FILLER_2_195
*897 FILLER_2_197
*898 FILLER_2_209
*899 FILLER_2_221
*900 FILLER_2_233
*901 FILLER_2_245
*902 FILLER_2_251
*903 FILLER_2_253
*904 FILLER_2_265
*905 FILLER_2_27
*906 FILLER_2_277
*907 FILLER_2_289
*908 FILLER_2_29
*909 FILLER_2_297
*910 FILLER_2_3
*911 FILLER_2_41
*912 FILLER_2_53
*913 FILLER_2_65
*914 FILLER_2_77
*915 FILLER_2_83
*916 FILLER_2_85
*917 FILLER_2_97
*918 FILLER_30_109
*919 FILLER_30_121
*920 FILLER_30_133
*921 FILLER_30_139
*922 FILLER_30_141
*923 FILLER_30_153
*924 FILLER_30_165
*925 FILLER_30_177
*926 FILLER_30_189
*927 FILLER_30_195
*928 FILLER_30_197
*929 FILLER_30_209
*930 FILLER_30_221
*931 FILLER_30_233
*932 FILLER_30_245
*933 FILLER_30_25
*934 FILLER_30_251
*935 FILLER_30_253
*936 FILLER_30_265
*937 FILLER_30_277
*938 FILLER_30_289
*939 FILLER_30_29
*940 FILLER_30_297
*941 FILLER_30_3
*942 FILLER_30_44
*943 FILLER_30_56
*944 FILLER_30_68
*945 FILLER_30_80
*946 FILLER_30_85
*947 FILLER_30_97
*948 FILLER_31_105
*949 FILLER_31_111
*950 FILLER_31_113
*951 FILLER_31_125
*952 FILLER_31_137
*953 FILLER_31_149
*954 FILLER_31_161
*955 FILLER_31_167
*956 FILLER_31_169
*957 FILLER_31_181
*958 FILLER_31_193
*959 FILLER_31_205
*960 FILLER_31_217
*961 FILLER_31_223
*962 FILLER_31_225
*963 FILLER_31_237
*964 FILLER_31_249
*965 FILLER_31_25
*966 FILLER_31_261
*967 FILLER_31_273
*968 FILLER_31_279
*969 FILLER_31_281
*970 FILLER_31_293
*971 FILLER_31_3
*972 FILLER_31_49
*973 FILLER_31_55
*974 FILLER_31_57
*975 FILLER_31_69
*976 FILLER_31_81
*977 FILLER_31_93
*978 FILLER_32_109
*979 FILLER_32_121
*980 FILLER_32_133
*981 FILLER_32_139
*982 FILLER_32_141
*983 FILLER_32_153
*984 FILLER_32_165
*985 FILLER_32_177
*986 FILLER_32_189
*987 FILLER_32_195
*988 FILLER_32_197
*989 FILLER_32_209
*990 FILLER_32_221
*991 FILLER_32_233
*992 FILLER_32_245
*993 FILLER_32_251
*994 FILLER_32_253
*995 FILLER_32_26
*996 FILLER_32_265
*997 FILLER_32_277
*998 FILLER_32_289
*999 FILLER_32_29
*1000 FILLER_32_297
*1001 FILLER_32_3
*1002 FILLER_32_51
*1003 FILLER_32_59
*1004 FILLER_32_66
*1005 FILLER_32_78
*1006 FILLER_32_85
*1007 FILLER_32_97
*1008 FILLER_33_108
*1009 FILLER_33_113
*1010 FILLER_33_12
*1011 FILLER_33_125
*1012 FILLER_33_137
*1013 FILLER_33_149
*1014 FILLER_33_161
*1015 FILLER_33_167
*1016 FILLER_33_169
*1017 FILLER_33_181
*1018 FILLER_33_193
*1019 FILLER_33_205
*1020 FILLER_33_217
*1021 FILLER_33_223
*1022 FILLER_33_225
*1023 FILLER_33_237
*1024 FILLER_33_249
*1025 FILLER_33_261
*1026 FILLER_33_273
*1027 FILLER_33_279
*1028 FILLER_33_281
*1029 FILLER_33_293
*1030 FILLER_33_3
*1031 FILLER_33_36
*1032 FILLER_33_48
*1033 FILLER_33_57
*1034 FILLER_33_64
*1035 FILLER_33_72
*1036 FILLER_33_84
*1037 FILLER_33_96
*1038 FILLER_34_109
*1039 FILLER_34_121
*1040 FILLER_34_133
*1041 FILLER_34_139
*1042 FILLER_34_141
*1043 FILLER_34_153
*1044 FILLER_34_165
*1045 FILLER_34_177
*1046 FILLER_34_189
*1047 FILLER_34_195
*1048 FILLER_34_197
*1049 FILLER_34_209
*1050 FILLER_34_221
*1051 FILLER_34_233
*1052 FILLER_34_245
*1053 FILLER_34_251
*1054 FILLER_34_253
*1055 FILLER_34_26
*1056 FILLER_34_265
*1057 FILLER_34_277
*1058 FILLER_34_289
*1059 FILLER_34_29
*1060 FILLER_34_297
*1061 FILLER_34_3
*1062 FILLER_34_51
*1063 FILLER_34_75
*1064 FILLER_34_83
*1065 FILLER_34_85
*1066 FILLER_34_97
*1067 FILLER_35_100
*1068 FILLER_35_113
*1069 FILLER_35_12
*1070 FILLER_35_125
*1071 FILLER_35_137
*1072 FILLER_35_149
*1073 FILLER_35_161
*1074 FILLER_35_167
*1075 FILLER_35_169
*1076 FILLER_35_181
*1077 FILLER_35_193
*1078 FILLER_35_205
*1079 FILLER_35_217
*1080 FILLER_35_223
*1081 FILLER_35_225
*1082 FILLER_35_237
*1083 FILLER_35_249
*1084 FILLER_35_261
*1085 FILLER_35_273
*1086 FILLER_35_279
*1087 FILLER_35_281
*1088 FILLER_35_293
*1089 FILLER_35_3
*1090 FILLER_35_36
*1091 FILLER_35_48
*1092 FILLER_35_57
*1093 FILLER_35_79
*1094 FILLER_35_88
*1095 FILLER_36_104
*1096 FILLER_36_116
*1097 FILLER_36_128
*1098 FILLER_36_141
*1099 FILLER_36_153
*1100 FILLER_36_165
*1101 FILLER_36_177
*1102 FILLER_36_189
*1103 FILLER_36_195
*1104 FILLER_36_197
*1105 FILLER_36_209
*1106 FILLER_36_221
*1107 FILLER_36_233
*1108 FILLER_36_245
*1109 FILLER_36_251
*1110 FILLER_36_253
*1111 FILLER_36_26
*1112 FILLER_36_265
*1113 FILLER_36_277
*1114 FILLER_36_289
*1115 FILLER_36_29
*1116 FILLER_36_297
*1117 FILLER_36_3
*1118 FILLER_36_51
*1119 FILLER_36_75
*1120 FILLER_36_83
*1121 FILLER_36_85
*1122 FILLER_36_92
*1123 FILLER_37_110
*1124 FILLER_37_113
*1125 FILLER_37_12
*1126 FILLER_37_125
*1127 FILLER_37_137
*1128 FILLER_37_149
*1129 FILLER_37_161
*1130 FILLER_37_167
*1131 FILLER_37_169
*1132 FILLER_37_181
*1133 FILLER_37_193
*1134 FILLER_37_205
*1135 FILLER_37_217
*1136 FILLER_37_223
*1137 FILLER_37_225
*1138 FILLER_37_237
*1139 FILLER_37_249
*1140 FILLER_37_261
*1141 FILLER_37_273
*1142 FILLER_37_279
*1143 FILLER_37_281
*1144 FILLER_37_293
*1145 FILLER_37_3
*1146 FILLER_37_36
*1147 FILLER_37_50
*1148 FILLER_37_57
*1149 FILLER_37_79
*1150 FILLER_37_89
*1151 FILLER_37_98
*1152 FILLER_38_107
*1153 FILLER_38_119
*1154 FILLER_38_131
*1155 FILLER_38_139
*1156 FILLER_38_141
*1157 FILLER_38_153
*1158 FILLER_38_165
*1159 FILLER_38_177
*1160 FILLER_38_189
*1161 FILLER_38_195
*1162 FILLER_38_197
*1163 FILLER_38_209
*1164 FILLER_38_221
*1165 FILLER_38_233
*1166 FILLER_38_245
*1167 FILLER_38_251
*1168 FILLER_38_253
*1169 FILLER_38_26
*1170 FILLER_38_265
*1171 FILLER_38_277
*1172 FILLER_38_289
*1173 FILLER_38_29
*1174 FILLER_38_297
*1175 FILLER_38_3
*1176 FILLER_38_51
*1177 FILLER_38_75
*1178 FILLER_38_83
*1179 FILLER_38_85
*1180 FILLER_39_103
*1181 FILLER_39_111
*1182 FILLER_39_113
*1183 FILLER_39_12
*1184 FILLER_39_125
*1185 FILLER_39_137
*1186 FILLER_39_149
*1187 FILLER_39_161
*1188 FILLER_39_167
*1189 FILLER_39_169
*1190 FILLER_39_181
*1191 FILLER_39_193
*1192 FILLER_39_205
*1193 FILLER_39_217
*1194 FILLER_39_223
*1195 FILLER_39_225
*1196 FILLER_39_237
*1197 FILLER_39_249
*1198 FILLER_39_261
*1199 FILLER_39_273
*1200 FILLER_39_279
*1201 FILLER_39_281
*1202 FILLER_39_293
*1203 FILLER_39_3
*1204 FILLER_39_36
*1205 FILLER_39_48
*1206 FILLER_39_57
*1207 FILLER_39_79
*1208 FILLER_3_105
*1209 FILLER_3_111
*1210 FILLER_3_113
*1211 FILLER_3_125
*1212 FILLER_3_137
*1213 FILLER_3_149
*1214 FILLER_3_15
*1215 FILLER_3_161
*1216 FILLER_3_167
*1217 FILLER_3_169
*1218 FILLER_3_181
*1219 FILLER_3_193
*1220 FILLER_3_205
*1221 FILLER_3_217
*1222 FILLER_3_223
*1223 FILLER_3_225
*1224 FILLER_3_237
*1225 FILLER_3_249
*1226 FILLER_3_261
*1227 FILLER_3_27
*1228 FILLER_3_273
*1229 FILLER_3_279
*1230 FILLER_3_281
*1231 FILLER_3_293
*1232 FILLER_3_3
*1233 FILLER_3_39
*1234 FILLER_3_51
*1235 FILLER_3_55
*1236 FILLER_3_57
*1237 FILLER_3_69
*1238 FILLER_3_81
*1239 FILLER_3_93
*1240 FILLER_40_107
*1241 FILLER_40_117
*1242 FILLER_40_129
*1243 FILLER_40_137
*1244 FILLER_40_141
*1245 FILLER_40_153
*1246 FILLER_40_165
*1247 FILLER_40_177
*1248 FILLER_40_189
*1249 FILLER_40_195
*1250 FILLER_40_197
*1251 FILLER_40_209
*1252 FILLER_40_221
*1253 FILLER_40_233
*1254 FILLER_40_245
*1255 FILLER_40_251
*1256 FILLER_40_253
*1257 FILLER_40_26
*1258 FILLER_40_265
*1259 FILLER_40_277
*1260 FILLER_40_289
*1261 FILLER_40_29
*1262 FILLER_40_297
*1263 FILLER_40_3
*1264 FILLER_40_51
*1265 FILLER_40_75
*1266 FILLER_40_83
*1267 FILLER_40_85
*1268 FILLER_41_103
*1269 FILLER_41_111
*1270 FILLER_41_113
*1271 FILLER_41_12
*1272 FILLER_41_120
*1273 FILLER_41_132
*1274 FILLER_41_144
*1275 FILLER_41_156
*1276 FILLER_41_169
*1277 FILLER_41_181
*1278 FILLER_41_193
*1279 FILLER_41_205
*1280 FILLER_41_217
*1281 FILLER_41_223
*1282 FILLER_41_225
*1283 FILLER_41_237
*1284 FILLER_41_249
*1285 FILLER_41_261
*1286 FILLER_41_273
*1287 FILLER_41_279
*1288 FILLER_41_281
*1289 FILLER_41_293
*1290 FILLER_41_3
*1291 FILLER_41_36
*1292 FILLER_41_50
*1293 FILLER_41_57
*1294 FILLER_41_79
*1295 FILLER_42_107
*1296 FILLER_42_117
*1297 FILLER_42_126
*1298 FILLER_42_138
*1299 FILLER_42_141
*1300 FILLER_42_153
*1301 FILLER_42_165
*1302 FILLER_42_177
*1303 FILLER_42_189
*1304 FILLER_42_195
*1305 FILLER_42_197
*1306 FILLER_42_209
*1307 FILLER_42_221
*1308 FILLER_42_233
*1309 FILLER_42_245
*1310 FILLER_42_251
*1311 FILLER_42_253
*1312 FILLER_42_26
*1313 FILLER_42_265
*1314 FILLER_42_277
*1315 FILLER_42_289
*1316 FILLER_42_29
*1317 FILLER_42_297
*1318 FILLER_42_3
*1319 FILLER_42_51
*1320 FILLER_42_75
*1321 FILLER_42_83
*1322 FILLER_42_85
*1323 FILLER_43_103
*1324 FILLER_43_111
*1325 FILLER_43_113
*1326 FILLER_43_122
*1327 FILLER_43_130
*1328 FILLER_43_142
*1329 FILLER_43_15
*1330 FILLER_43_154
*1331 FILLER_43_166
*1332 FILLER_43_169
*1333 FILLER_43_181
*1334 FILLER_43_193
*1335 FILLER_43_205
*1336 FILLER_43_217
*1337 FILLER_43_223
*1338 FILLER_43_225
*1339 FILLER_43_237
*1340 FILLER_43_249
*1341 FILLER_43_261
*1342 FILLER_43_273
*1343 FILLER_43_279
*1344 FILLER_43_281
*1345 FILLER_43_293
*1346 FILLER_43_3
*1347 FILLER_43_39
*1348 FILLER_43_52
*1349 FILLER_43_57
*1350 FILLER_43_79
*1351 FILLER_44_107
*1352 FILLER_44_119
*1353 FILLER_44_131
*1354 FILLER_44_139
*1355 FILLER_44_141
*1356 FILLER_44_153
*1357 FILLER_44_165
*1358 FILLER_44_177
*1359 FILLER_44_189
*1360 FILLER_44_195
*1361 FILLER_44_197
*1362 FILLER_44_209
*1363 FILLER_44_221
*1364 FILLER_44_233
*1365 FILLER_44_245
*1366 FILLER_44_251
*1367 FILLER_44_253
*1368 FILLER_44_26
*1369 FILLER_44_265
*1370 FILLER_44_277
*1371 FILLER_44_289
*1372 FILLER_44_29
*1373 FILLER_44_297
*1374 FILLER_44_3
*1375 FILLER_44_51
*1376 FILLER_44_75
*1377 FILLER_44_83
*1378 FILLER_44_85
*1379 FILLER_45_103
*1380 FILLER_45_111
*1381 FILLER_45_113
*1382 FILLER_45_12
*1383 FILLER_45_122
*1384 FILLER_45_134
*1385 FILLER_45_146
*1386 FILLER_45_158
*1387 FILLER_45_166
*1388 FILLER_45_169
*1389 FILLER_45_181
*1390 FILLER_45_193
*1391 FILLER_45_205
*1392 FILLER_45_217
*1393 FILLER_45_223
*1394 FILLER_45_225
*1395 FILLER_45_237
*1396 FILLER_45_249
*1397 FILLER_45_261
*1398 FILLER_45_273
*1399 FILLER_45_279
*1400 FILLER_45_281
*1401 FILLER_45_293
*1402 FILLER_45_3
*1403 FILLER_45_36
*1404 FILLER_45_53
*1405 FILLER_45_57
*1406 FILLER_45_79
*1407 FILLER_46_107
*1408 FILLER_46_131
*1409 FILLER_46_139
*1410 FILLER_46_141
*1411 FILLER_46_153
*1412 FILLER_46_165
*1413 FILLER_46_177
*1414 FILLER_46_189
*1415 FILLER_46_195
*1416 FILLER_46_197
*1417 FILLER_46_209
*1418 FILLER_46_221
*1419 FILLER_46_233
*1420 FILLER_46_245
*1421 FILLER_46_251
*1422 FILLER_46_253
*1423 FILLER_46_26
*1424 FILLER_46_265
*1425 FILLER_46_277
*1426 FILLER_46_289
*1427 FILLER_46_29
*1428 FILLER_46_297
*1429 FILLER_46_3
*1430 FILLER_46_51
*1431 FILLER_46_75
*1432 FILLER_46_83
*1433 FILLER_46_85
*1434 FILLER_47_103
*1435 FILLER_47_111
*1436 FILLER_47_113
*1437 FILLER_47_12
*1438 FILLER_47_120
*1439 FILLER_47_128
*1440 FILLER_47_140
*1441 FILLER_47_152
*1442 FILLER_47_164
*1443 FILLER_47_169
*1444 FILLER_47_181
*1445 FILLER_47_193
*1446 FILLER_47_205
*1447 FILLER_47_217
*1448 FILLER_47_223
*1449 FILLER_47_225
*1450 FILLER_47_237
*1451 FILLER_47_249
*1452 FILLER_47_261
*1453 FILLER_47_273
*1454 FILLER_47_279
*1455 FILLER_47_281
*1456 FILLER_47_293
*1457 FILLER_47_3
*1458 FILLER_47_36
*1459 FILLER_47_53
*1460 FILLER_47_57
*1461 FILLER_47_79
*1462 FILLER_48_107
*1463 FILLER_48_118
*1464 FILLER_48_130
*1465 FILLER_48_138
*1466 FILLER_48_141
*1467 FILLER_48_153
*1468 FILLER_48_165
*1469 FILLER_48_177
*1470 FILLER_48_189
*1471 FILLER_48_195
*1472 FILLER_48_197
*1473 FILLER_48_209
*1474 FILLER_48_221
*1475 FILLER_48_233
*1476 FILLER_48_245
*1477 FILLER_48_251
*1478 FILLER_48_253
*1479 FILLER_48_26
*1480 FILLER_48_265
*1481 FILLER_48_277
*1482 FILLER_48_289
*1483 FILLER_48_29
*1484 FILLER_48_297
*1485 FILLER_48_3
*1486 FILLER_48_51
*1487 FILLER_48_75
*1488 FILLER_48_83
*1489 FILLER_48_85
*1490 FILLER_49_103
*1491 FILLER_49_111
*1492 FILLER_49_113
*1493 FILLER_49_122
*1494 FILLER_49_134
*1495 FILLER_49_146
*1496 FILLER_49_158
*1497 FILLER_49_166
*1498 FILLER_49_169
*1499 FILLER_49_17
*1500 FILLER_49_181
*1501 FILLER_49_193
*1502 FILLER_49_205
*1503 FILLER_49_217
*1504 FILLER_49_223
*1505 FILLER_49_225
*1506 FILLER_49_237
*1507 FILLER_49_249
*1508 FILLER_49_261
*1509 FILLER_49_273
*1510 FILLER_49_279
*1511 FILLER_49_281
*1512 FILLER_49_293
*1513 FILLER_49_3
*1514 FILLER_49_41
*1515 FILLER_49_53
*1516 FILLER_49_57
*1517 FILLER_49_7
*1518 FILLER_49_79
*1519 FILLER_4_109
*1520 FILLER_4_121
*1521 FILLER_4_133
*1522 FILLER_4_139
*1523 FILLER_4_141
*1524 FILLER_4_15
*1525 FILLER_4_153
*1526 FILLER_4_165
*1527 FILLER_4_177
*1528 FILLER_4_189
*1529 FILLER_4_195
*1530 FILLER_4_197
*1531 FILLER_4_209
*1532 FILLER_4_221
*1533 FILLER_4_233
*1534 FILLER_4_245
*1535 FILLER_4_251
*1536 FILLER_4_253
*1537 FILLER_4_265
*1538 FILLER_4_27
*1539 FILLER_4_277
*1540 FILLER_4_289
*1541 FILLER_4_29
*1542 FILLER_4_297
*1543 FILLER_4_3
*1544 FILLER_4_41
*1545 FILLER_4_53
*1546 FILLER_4_65
*1547 FILLER_4_77
*1548 FILLER_4_83
*1549 FILLER_4_85
*1550 FILLER_4_97
*1551 FILLER_50_107
*1552 FILLER_50_117
*1553 FILLER_50_125
*1554 FILLER_50_137
*1555 FILLER_50_141
*1556 FILLER_50_153
*1557 FILLER_50_165
*1558 FILLER_50_177
*1559 FILLER_50_189
*1560 FILLER_50_195
*1561 FILLER_50_197
*1562 FILLER_50_209
*1563 FILLER_50_221
*1564 FILLER_50_233
*1565 FILLER_50_245
*1566 FILLER_50_251
*1567 FILLER_50_253
*1568 FILLER_50_26
*1569 FILLER_50_265
*1570 FILLER_50_277
*1571 FILLER_50_289