*SPEF "ieee 1481-1999"
*DESIGN "tucanae47_gray_ctr6"
*DATE "11:11:11 Fri 11 11, 1111"
*VENDOR "OpenRCX"
*PROGRAM "Parallel Extraction"
*VERSION "1.0"
*DESIGN_FLOW "NAME_SCOPE LOCAL" "PIN_CAP NONE"
*DIVIDER /
*DELIMITER :
*BUS_DELIMITER []
*T_UNIT 1 NS
*C_UNIT 1 PF
*R_UNIT 1 OHM
*L_UNIT 1 HENRY

*NAME_MAP
*1 io_in[0]
*2 io_in[1]
*3 io_in[2]
*4 io_in[3]
*5 io_in[4]
*6 io_in[5]
*7 io_in[6]
*8 io_in[7]
*9 io_out[0]
*10 io_out[1]
*11 io_out[2]
*12 io_out[3]
*13 io_out[4]
*14 io_out[5]
*15 net2
*16 net3
*19 _00_
*20 _01_
*21 _02_
*22 _03_
*23 _04_
*24 _05_
*25 _06_
*26 _07_
*27 _08_
*28 _09_
*29 _10_
*30 _11_
*31 _12_
*32 _13_
*33 _14_
*34 _15_
*35 _16_
*36 _17_
*37 _18_
*38 _19_
*39 _20_
*40 _21_
*41 _22_
*42 _23_
*43 _24_
*44 clknet_0_io_in[0]
*45 clknet_1_0__leaf_io_in[0]
*46 clknet_1_1__leaf_io_in[0]
*47 net1
*48 q\[0\]
*49 q\[1\]
*50 q\[2\]
*51 q\[3\]
*52 q\[4\]
*53 q\[5\]
*54 FILLER_0_109
*55 FILLER_0_113
*56 FILLER_0_125
*57 FILLER_0_137
*58 FILLER_0_141
*59 FILLER_0_153
*60 FILLER_0_165
*61 FILLER_0_169
*62 FILLER_0_181
*63 FILLER_0_193
*64 FILLER_0_197
*65 FILLER_0_209
*66 FILLER_0_22
*67 FILLER_0_221
*68 FILLER_0_225
*69 FILLER_0_237
*70 FILLER_0_249
*71 FILLER_0_253
*72 FILLER_0_265
*73 FILLER_0_277
*74 FILLER_0_281
*75 FILLER_0_29
*76 FILLER_0_293
*77 FILLER_0_3
*78 FILLER_0_48
*79 FILLER_0_57
*80 FILLER_0_69
*81 FILLER_0_81
*82 FILLER_0_85
*83 FILLER_0_97
*84 FILLER_10_109
*85 FILLER_10_121
*86 FILLER_10_133
*87 FILLER_10_139
*88 FILLER_10_141
*89 FILLER_10_15
*90 FILLER_10_153
*91 FILLER_10_165
*92 FILLER_10_177
*93 FILLER_10_189
*94 FILLER_10_195
*95 FILLER_10_197
*96 FILLER_10_209
*97 FILLER_10_221
*98 FILLER_10_233
*99 FILLER_10_245
*100 FILLER_10_251
*101 FILLER_10_253
*102 FILLER_10_265
*103 FILLER_10_27
*104 FILLER_10_277
*105 FILLER_10_289
*106 FILLER_10_29
*107 FILLER_10_297
*108 FILLER_10_3
*109 FILLER_10_41
*110 FILLER_10_53
*111 FILLER_10_65
*112 FILLER_10_77
*113 FILLER_10_83
*114 FILLER_10_85
*115 FILLER_10_97
*116 FILLER_11_105
*117 FILLER_11_111
*118 FILLER_11_113
*119 FILLER_11_125
*120 FILLER_11_137
*121 FILLER_11_149
*122 FILLER_11_15
*123 FILLER_11_161
*124 FILLER_11_167
*125 FILLER_11_169
*126 FILLER_11_181
*127 FILLER_11_193
*128 FILLER_11_205
*129 FILLER_11_217
*130 FILLER_11_223
*131 FILLER_11_225
*132 FILLER_11_237
*133 FILLER_11_249
*134 FILLER_11_261
*135 FILLER_11_27
*136 FILLER_11_273
*137 FILLER_11_279
*138 FILLER_11_281
*139 FILLER_11_293
*140 FILLER_11_3
*141 FILLER_11_39
*142 FILLER_11_51
*143 FILLER_11_55
*144 FILLER_11_57
*145 FILLER_11_69
*146 FILLER_11_81
*147 FILLER_11_93
*148 FILLER_12_109
*149 FILLER_12_121
*150 FILLER_12_133
*151 FILLER_12_139
*152 FILLER_12_141
*153 FILLER_12_15
*154 FILLER_12_153
*155 FILLER_12_165
*156 FILLER_12_177
*157 FILLER_12_189
*158 FILLER_12_195
*159 FILLER_12_197
*160 FILLER_12_209
*161 FILLER_12_221
*162 FILLER_12_233
*163 FILLER_12_245
*164 FILLER_12_251
*165 FILLER_12_253
*166 FILLER_12_265
*167 FILLER_12_27
*168 FILLER_12_277
*169 FILLER_12_289
*170 FILLER_12_29
*171 FILLER_12_297
*172 FILLER_12_3
*173 FILLER_12_41
*174 FILLER_12_53
*175 FILLER_12_65
*176 FILLER_12_77
*177 FILLER_12_83
*178 FILLER_12_85
*179 FILLER_12_97
*180 FILLER_13_105
*181 FILLER_13_111
*182 FILLER_13_113
*183 FILLER_13_125
*184 FILLER_13_137
*185 FILLER_13_149
*186 FILLER_13_15
*187 FILLER_13_161
*188 FILLER_13_167
*189 FILLER_13_169
*190 FILLER_13_181
*191 FILLER_13_193
*192 FILLER_13_205
*193 FILLER_13_217
*194 FILLER_13_223
*195 FILLER_13_225
*196 FILLER_13_237
*197 FILLER_13_249
*198 FILLER_13_261
*199 FILLER_13_27
*200 FILLER_13_273
*201 FILLER_13_279
*202 FILLER_13_281
*203 FILLER_13_293
*204 FILLER_13_3
*205 FILLER_13_39
*206 FILLER_13_51
*207 FILLER_13_55
*208 FILLER_13_57
*209 FILLER_13_69
*210 FILLER_13_81
*211 FILLER_13_93
*212 FILLER_14_109
*213 FILLER_14_121
*214 FILLER_14_133
*215 FILLER_14_139
*216 FILLER_14_141
*217 FILLER_14_15
*218 FILLER_14_153
*219 FILLER_14_165
*220 FILLER_14_177
*221 FILLER_14_189
*222 FILLER_14_195
*223 FILLER_14_197
*224 FILLER_14_209
*225 FILLER_14_221
*226 FILLER_14_233
*227 FILLER_14_245
*228 FILLER_14_251
*229 FILLER_14_253
*230 FILLER_14_265
*231 FILLER_14_27
*232 FILLER_14_277
*233 FILLER_14_289
*234 FILLER_14_29
*235 FILLER_14_297
*236 FILLER_14_3
*237 FILLER_14_41
*238 FILLER_14_53
*239 FILLER_14_65
*240 FILLER_14_77
*241 FILLER_14_83
*242 FILLER_14_85
*243 FILLER_14_97
*244 FILLER_15_105
*245 FILLER_15_111
*246 FILLER_15_113
*247 FILLER_15_125
*248 FILLER_15_137
*249 FILLER_15_149
*250 FILLER_15_15
*251 FILLER_15_161
*252 FILLER_15_167
*253 FILLER_15_169
*254 FILLER_15_181
*255 FILLER_15_193
*256 FILLER_15_205
*257 FILLER_15_217
*258 FILLER_15_223
*259 FILLER_15_225
*260 FILLER_15_237
*261 FILLER_15_249
*262 FILLER_15_261
*263 FILLER_15_27
*264 FILLER_15_273
*265 FILLER_15_279
*266 FILLER_15_281
*267 FILLER_15_293
*268 FILLER_15_3
*269 FILLER_15_39
*270 FILLER_15_51
*271 FILLER_15_55
*272 FILLER_15_57
*273 FILLER_15_69
*274 FILLER_15_81
*275 FILLER_15_93
*276 FILLER_16_109
*277 FILLER_16_121
*278 FILLER_16_133
*279 FILLER_16_139
*280 FILLER_16_141
*281 FILLER_16_15
*282 FILLER_16_153
*283 FILLER_16_165
*284 FILLER_16_177
*285 FILLER_16_189
*286 FILLER_16_195
*287 FILLER_16_197
*288 FILLER_16_209
*289 FILLER_16_221
*290 FILLER_16_233
*291 FILLER_16_245
*292 FILLER_16_251
*293 FILLER_16_253
*294 FILLER_16_265
*295 FILLER_16_27
*296 FILLER_16_277
*297 FILLER_16_289
*298 FILLER_16_29
*299 FILLER_16_297
*300 FILLER_16_3
*301 FILLER_16_41
*302 FILLER_16_53
*303 FILLER_16_65
*304 FILLER_16_77
*305 FILLER_16_83
*306 FILLER_16_85
*307 FILLER_16_97
*308 FILLER_17_105
*309 FILLER_17_111
*310 FILLER_17_113
*311 FILLER_17_125
*312 FILLER_17_137
*313 FILLER_17_149
*314 FILLER_17_15
*315 FILLER_17_161
*316 FILLER_17_167
*317 FILLER_17_169
*318 FILLER_17_181
*319 FILLER_17_193
*320 FILLER_17_205
*321 FILLER_17_217
*322 FILLER_17_223
*323 FILLER_17_225
*324 FILLER_17_237
*325 FILLER_17_249
*326 FILLER_17_261
*327 FILLER_17_27
*328 FILLER_17_273
*329 FILLER_17_279
*330 FILLER_17_281
*331 FILLER_17_293
*332 FILLER_17_3
*333 FILLER_17_39
*334 FILLER_17_51
*335 FILLER_17_55
*336 FILLER_17_57
*337 FILLER_17_69
*338 FILLER_17_81
*339 FILLER_17_93
*340 FILLER_18_109
*341 FILLER_18_121
*342 FILLER_18_133
*343 FILLER_18_139
*344 FILLER_18_141
*345 FILLER_18_15
*346 FILLER_18_153
*347 FILLER_18_165
*348 FILLER_18_177
*349 FILLER_18_189
*350 FILLER_18_195
*351 FILLER_18_197
*352 FILLER_18_209
*353 FILLER_18_221
*354 FILLER_18_233
*355 FILLER_18_245
*356 FILLER_18_251
*357 FILLER_18_253
*358 FILLER_18_265
*359 FILLER_18_27
*360 FILLER_18_277
*361 FILLER_18_289
*362 FILLER_18_29
*363 FILLER_18_297
*364 FILLER_18_3
*365 FILLER_18_41
*366 FILLER_18_53
*367 FILLER_18_65
*368 FILLER_18_77
*369 FILLER_18_83
*370 FILLER_18_85
*371 FILLER_18_97
*372 FILLER_19_105
*373 FILLER_19_111
*374 FILLER_19_113
*375 FILLER_19_125
*376 FILLER_19_137
*377 FILLER_19_149
*378 FILLER_19_15
*379 FILLER_19_161
*380 FILLER_19_167
*381 FILLER_19_169
*382 FILLER_19_181
*383 FILLER_19_193
*384 FILLER_19_205
*385 FILLER_19_217
*386 FILLER_19_223
*387 FILLER_19_225
*388 FILLER_19_237
*389 FILLER_19_249
*390 FILLER_19_261
*391 FILLER_19_27
*392 FILLER_19_273
*393 FILLER_19_279
*394 FILLER_19_281
*395 FILLER_19_293
*396 FILLER_19_3
*397 FILLER_19_39
*398 FILLER_19_51
*399 FILLER_19_55
*400 FILLER_19_57
*401 FILLER_19_69
*402 FILLER_19_81
*403 FILLER_19_93
*404 FILLER_1_105
*405 FILLER_1_111
*406 FILLER_1_113
*407 FILLER_1_125
*408 FILLER_1_137
*409 FILLER_1_149
*410 FILLER_1_15
*411 FILLER_1_161
*412 FILLER_1_167
*413 FILLER_1_169
*414 FILLER_1_181
*415 FILLER_1_193
*416 FILLER_1_205
*417 FILLER_1_217
*418 FILLER_1_223
*419 FILLER_1_225
*420 FILLER_1_237
*421 FILLER_1_249
*422 FILLER_1_261
*423 FILLER_1_273
*424 FILLER_1_279
*425 FILLER_1_281
*426 FILLER_1_293
*427 FILLER_1_3
*428 FILLER_1_36
*429 FILLER_1_48
*430 FILLER_1_57
*431 FILLER_1_69
*432 FILLER_1_81
*433 FILLER_1_93
*434 FILLER_20_109
*435 FILLER_20_121
*436 FILLER_20_133
*437 FILLER_20_139
*438 FILLER_20_141
*439 FILLER_20_15
*440 FILLER_20_153
*441 FILLER_20_165
*442 FILLER_20_177
*443 FILLER_20_189
*444 FILLER_20_195
*445 FILLER_20_197
*446 FILLER_20_209
*447 FILLER_20_221
*448 FILLER_20_233
*449 FILLER_20_245
*450 FILLER_20_251
*451 FILLER_20_253
*452 FILLER_20_265
*453 FILLER_20_27
*454 FILLER_20_277
*455 FILLER_20_289
*456 FILLER_20_29
*457 FILLER_20_297
*458 FILLER_20_3
*459 FILLER_20_41
*460 FILLER_20_53
*461 FILLER_20_65
*462 FILLER_20_77
*463 FILLER_20_83
*464 FILLER_20_85
*465 FILLER_20_97
*466 FILLER_21_105
*467 FILLER_21_111
*468 FILLER_21_113
*469 FILLER_21_125
*470 FILLER_21_137
*471 FILLER_21_149
*472 FILLER_21_15
*473 FILLER_21_161
*474 FILLER_21_167
*475 FILLER_21_169
*476 FILLER_21_181
*477 FILLER_21_193
*478 FILLER_21_205
*479 FILLER_21_217
*480 FILLER_21_223
*481 FILLER_21_225
*482 FILLER_21_237
*483 FILLER_21_249
*484 FILLER_21_261
*485 FILLER_21_27
*486 FILLER_21_273
*487 FILLER_21_279
*488 FILLER_21_281
*489 FILLER_21_293
*490 FILLER_21_3
*491 FILLER_21_39
*492 FILLER_21_51
*493 FILLER_21_55
*494 FILLER_21_57
*495 FILLER_21_69
*496 FILLER_21_81
*497 FILLER_21_93
*498 FILLER_22_109
*499 FILLER_22_121
*500 FILLER_22_133
*501 FILLER_22_139
*502 FILLER_22_141
*503 FILLER_22_15
*504 FILLER_22_153
*505 FILLER_22_165
*506 FILLER_22_177
*507 FILLER_22_189
*508 FILLER_22_195
*509 FILLER_22_197
*510 FILLER_22_209
*511 FILLER_22_221
*512 FILLER_22_233
*513 FILLER_22_245
*514 FILLER_22_251
*515 FILLER_22_253
*516 FILLER_22_265
*517 FILLER_22_27
*518 FILLER_22_277
*519 FILLER_22_289
*520 FILLER_22_29
*521 FILLER_22_297
*522 FILLER_22_3
*523 FILLER_22_41
*524 FILLER_22_53
*525 FILLER_22_65
*526 FILLER_22_77
*527 FILLER_22_83
*528 FILLER_22_85
*529 FILLER_22_97
*530 FILLER_23_105
*531 FILLER_23_111
*532 FILLER_23_113
*533 FILLER_23_125
*534 FILLER_23_137
*535 FILLER_23_149
*536 FILLER_23_15
*537 FILLER_23_161
*538 FILLER_23_167
*539 FILLER_23_169
*540 FILLER_23_181
*541 FILLER_23_193
*542 FILLER_23_205
*543 FILLER_23_217
*544 FILLER_23_223
*545 FILLER_23_225
*546 FILLER_23_237
*547 FILLER_23_249
*548 FILLER_23_261
*549 FILLER_23_27
*550 FILLER_23_273
*551 FILLER_23_279
*552 FILLER_23_281
*553 FILLER_23_293
*554 FILLER_23_3
*555 FILLER_23_39
*556 FILLER_23_51
*557 FILLER_23_55
*558 FILLER_23_57
*559 FILLER_23_69
*560 FILLER_23_81
*561 FILLER_23_93
*562 FILLER_24_109
*563 FILLER_24_121
*564 FILLER_24_133
*565 FILLER_24_139
*566 FILLER_24_141
*567 FILLER_24_15
*568 FILLER_24_153
*569 FILLER_24_165
*570 FILLER_24_177
*571 FILLER_24_189
*572 FILLER_24_195
*573 FILLER_24_197
*574 FILLER_24_209
*575 FILLER_24_221
*576 FILLER_24_233
*577 FILLER_24_245
*578 FILLER_24_251
*579 FILLER_24_253
*580 FILLER_24_265
*581 FILLER_24_27
*582 FILLER_24_277
*583 FILLER_24_289
*584 FILLER_24_29
*585 FILLER_24_297
*586 FILLER_24_3
*587 FILLER_24_41
*588 FILLER_24_53
*589 FILLER_24_65
*590 FILLER_24_77
*591 FILLER_24_83
*592 FILLER_24_85
*593 FILLER_24_97
*594 FILLER_25_105
*595 FILLER_25_111
*596 FILLER_25_113
*597 FILLER_25_125
*598 FILLER_25_137
*599 FILLER_25_149
*600 FILLER_25_15
*601 FILLER_25_161
*602 FILLER_25_167
*603 FILLER_25_169
*604 FILLER_25_181
*605 FILLER_25_193
*606 FILLER_25_205
*607 FILLER_25_217
*608 FILLER_25_223
*609 FILLER_25_225
*610 FILLER_25_237
*611 FILLER_25_249
*612 FILLER_25_261
*613 FILLER_25_27
*614 FILLER_25_273
*615 FILLER_25_279
*616 FILLER_25_281
*617 FILLER_25_293
*618 FILLER_25_3
*619 FILLER_25_39
*620 FILLER_25_51
*621 FILLER_25_55
*622 FILLER_25_57
*623 FILLER_25_69
*624 FILLER_25_81
*625 FILLER_25_93
*626 FILLER_26_109
*627 FILLER_26_121
*628 FILLER_26_133
*629 FILLER_26_139
*630 FILLER_26_141
*631 FILLER_26_15
*632 FILLER_26_153
*633 FILLER_26_165
*634 FILLER_26_177
*635 FILLER_26_189
*636 FILLER_26_195
*637 FILLER_26_197
*638 FILLER_26_209
*639 FILLER_26_221
*640 FILLER_26_233
*641 FILLER_26_245
*642 FILLER_26_251
*643 FILLER_26_253
*644 FILLER_26_265
*645 FILLER_26_27
*646 FILLER_26_277
*647 FILLER_26_289
*648 FILLER_26_29
*649 FILLER_26_297
*650 FILLER_26_3
*651 FILLER_26_41
*652 FILLER_26_53
*653 FILLER_26_65
*654 FILLER_26_77
*655 FILLER_26_83
*656 FILLER_26_85
*657 FILLER_26_97
*658 FILLER_27_105
*659 FILLER_27_11
*660 FILLER_27_111
*661 FILLER_27_113
*662 FILLER_27_125
*663 FILLER_27_137
*664 FILLER_27_149
*665 FILLER_27_161
*666 FILLER_27_167
*667 FILLER_27_169
*668 FILLER_27_181
*669 FILLER_27_193
*670 FILLER_27_205
*671 FILLER_27_217
*672 FILLER_27_223
*673 FILLER_27_225
*674 FILLER_27_23
*675 FILLER_27_237
*676 FILLER_27_249
*677 FILLER_27_261
*678 FILLER_27_273
*679 FILLER_27_279
*680 FILLER_27_281
*681 FILLER_27_293
*682 FILLER_27_3
*683 FILLER_27_35
*684 FILLER_27_47
*685 FILLER_27_55
*686 FILLER_27_57
*687 FILLER_27_69
*688 FILLER_27_81
*689 FILLER_27_93
*690 FILLER_28_109
*691 FILLER_28_121
*692 FILLER_28_13
*693 FILLER_28_133
*694 FILLER_28_139
*695 FILLER_28_141
*696 FILLER_28_153
*697 FILLER_28_165
*698 FILLER_28_177
*699 FILLER_28_189
*700 FILLER_28_195
*701 FILLER_28_197
*702 FILLER_28_20
*703 FILLER_28_209
*704 FILLER_28_221
*705 FILLER_28_233
*706 FILLER_28_245
*707 FILLER_28_251
*708 FILLER_28_253
*709 FILLER_28_265
*710 FILLER_28_277
*711 FILLER_28_289
*712 FILLER_28_29
*713 FILLER_28_297
*714 FILLER_28_3
*715 FILLER_28_41
*716 FILLER_28_53
*717 FILLER_28_65
*718 FILLER_28_77
*719 FILLER_28_83
*720 FILLER_28_85
*721 FILLER_28_97
*722 FILLER_29_105
*723 FILLER_29_111
*724 FILLER_29_113
*725 FILLER_29_12
*726 FILLER_29_125
*727 FILLER_29_137
*728 FILLER_29_149
*729 FILLER_29_161
*730 FILLER_29_167
*731 FILLER_29_169
*732 FILLER_29_181
*733 FILLER_29_193
*734 FILLER_29_205
*735 FILLER_29_217
*736 FILLER_29_223
*737 FILLER_29_225
*738 FILLER_29_237
*739 FILLER_29_24
*740 FILLER_29_249
*741 FILLER_29_261
*742 FILLER_29_273
*743 FILLER_29_279
*744 FILLER_29_281
*745 FILLER_29_293
*746 FILLER_29_3
*747 FILLER_29_36
*748 FILLER_29_48
*749 FILLER_29_57
*750 FILLER_29_69
*751 FILLER_29_81
*752 FILLER_29_93
*753 FILLER_2_109
*754 FILLER_2_121
*755 FILLER_2_133
*756 FILLER_2_139
*757 FILLER_2_141
*758 FILLER_2_153
*759 FILLER_2_165
*760 FILLER_2_177
*761 FILLER_2_189
*762 FILLER_2_195
*763 FILLER_2_197
*764 FILLER_2_209
*765 FILLER_2_22
*766 FILLER_2_221
*767 FILLER_2_233
*768 FILLER_2_245
*769 FILLER_2_251
*770 FILLER_2_253
*771 FILLER_2_265
*772 FILLER_2_277
*773 FILLER_2_289
*774 FILLER_2_29
*775 FILLER_2_297
*776 FILLER_2_3
*777 FILLER_2_48
*778 FILLER_2_60
*779 FILLER_2_72
*780 FILLER_2_85
*781 FILLER_2_97
*782 FILLER_30_10
*783 FILLER_30_109
*784 FILLER_30_121
*785 FILLER_30_133
*786 FILLER_30_139
*787 FILLER_30_141
*788 FILLER_30_153
*789 FILLER_30_165
*790 FILLER_30_177
*791 FILLER_30_18
*792 FILLER_30_189
*793 FILLER_30_195
*794 FILLER_30_197
*795 FILLER_30_209
*796 FILLER_30_221
*797 FILLER_30_233
*798 FILLER_30_245
*799 FILLER_30_251
*800 FILLER_30_253
*801 FILLER_30_26
*802 FILLER_30_265
*803 FILLER_30_277
*804 FILLER_30_289
*805 FILLER_30_29
*806 FILLER_30_297
*807 FILLER_30_3
*808 FILLER_30_41
*809 FILLER_30_53
*810 FILLER_30_65
*811 FILLER_30_77
*812 FILLER_30_83
*813 FILLER_30_85
*814 FILLER_30_97
*815 FILLER_31_105
*816 FILLER_31_11
*817 FILLER_31_111
*818 FILLER_31_113
*819 FILLER_31_125
*820 FILLER_31_137
*821 FILLER_31_149
*822 FILLER_31_161
*823 FILLER_31_167
*824 FILLER_31_169
*825 FILLER_31_181
*826 FILLER_31_19
*827 FILLER_31_193
*828 FILLER_31_205
*829 FILLER_31_217
*830 FILLER_31_223
*831 FILLER_31_225
*832 FILLER_31_237
*833 FILLER_31_249
*834 FILLER_31_26
*835 FILLER_31_261
*836 FILLER_31_273
*837 FILLER_31_279
*838 FILLER_31_281
*839 FILLER_31_293
*840 FILLER_31_3
*841 FILLER_31_38
*842 FILLER_31_50
*843 FILLER_31_57
*844 FILLER_31_69
*845 FILLER_31_81
*846 FILLER_31_93
*847 FILLER_32_109
*848 FILLER_32_12
*849 FILLER_32_121
*850 FILLER_32_133
*851 FILLER_32_139
*852 FILLER_32_141
*853 FILLER_32_153
*854 FILLER_32_165
*855 FILLER_32_177
*856 FILLER_32_189
*857 FILLER_32_195
*858 FILLER_32_197
*859 FILLER_32_209
*860 FILLER_32_221
*861 FILLER_32_233
*862 FILLER_32_245
*863 FILLER_32_251
*864 FILLER_32_253
*865 FILLER_32_26
*866 FILLER_32_265
*867 FILLER_32_277
*868 FILLER_32_289
*869 FILLER_32_29
*870 FILLER_32_297
*871 FILLER_32_3
*872 FILLER_32_41
*873 FILLER_32_53
*874 FILLER_32_65
*875 FILLER_32_77
*876 FILLER_32_83
*877 FILLER_32_85
*878 FILLER_32_97
*879 FILLER_33_105
*880 FILLER_33_111
*881 FILLER_33_113
*882 FILLER_33_125
*883 FILLER_33_137
*884 FILLER_33_149
*885 FILLER_33_161
*886 FILLER_33_167
*887 FILLER_33_169
*888 FILLER_33_181
*889 FILLER_33_193
*890 FILLER_33_205
*891 FILLER_33_217
*892 FILLER_33_22
*893 FILLER_33_223
*894 FILLER_33_225
*895 FILLER_33_237
*896 FILLER_33_249
*897 FILLER_33_261
*898 FILLER_33_273
*899 FILLER_33_279
*900 FILLER_33_281
*901 FILLER_33_293
*902 FILLER_33_3
*903 FILLER_33_30
*904 FILLER_33_42
*905 FILLER_33_54
*906 FILLER_33_57
*907 FILLER_33_69
*908 FILLER_33_81
*909 FILLER_33_93
*910 FILLER_34_109
*911 FILLER_34_121
*912 FILLER_34_133
*913 FILLER_34_139
*914 FILLER_34_141
*915 FILLER_34_153
*916 FILLER_34_165
*917 FILLER_34_17
*918 FILLER_34_177
*919 FILLER_34_189
*920 FILLER_34_195
*921 FILLER_34_197
*922 FILLER_34_209
*923 FILLER_34_221
*924 FILLER_34_233
*925 FILLER_34_245
*926 FILLER_34_25
*927 FILLER_34_251
*928 FILLER_34_253
*929 FILLER_34_265
*930 FILLER_34_277
*931 FILLER_34_289
*932 FILLER_34_29
*933 FILLER_34_297
*934 FILLER_34_3
*935 FILLER_34_41
*936 FILLER_34_53
*937 FILLER_34_65
*938 FILLER_34_77
*939 FILLER_34_83
*940 FILLER_34_85
*941 FILLER_34_9
*942 FILLER_34_97
*943 FILLER_35_105
*944 FILLER_35_11
*945 FILLER_35_111
*946 FILLER_35_113
*947 FILLER_35_125
*948 FILLER_35_137
*949 FILLER_35_149
*950 FILLER_35_161
*951 FILLER_35_167
*952 FILLER_35_169
*953 FILLER_35_181
*954 FILLER_35_193
*955 FILLER_35_205
*956 FILLER_35_217
*957 FILLER_35_223
*958 FILLER_35_225
*959 FILLER_35_23
*960 FILLER_35_237
*961 FILLER_35_249
*962 FILLER_35_261
*963 FILLER_35_273
*964 FILLER_35_279
*965 FILLER_35_281
*966 FILLER_35_293
*967 FILLER_35_3
*968 FILLER_35_35
*969 FILLER_35_47
*970 FILLER_35_55
*971 FILLER_35_57
*972 FILLER_35_69
*973 FILLER_35_81
*974 FILLER_35_93
*975 FILLER_36_109
*976 FILLER_36_121
*977 FILLER_36_133
*978 FILLER_36_139
*979 FILLER_36_141
*980 FILLER_36_15
*981 FILLER_36_153
*982 FILLER_36_165
*983 FILLER_36_177
*984 FILLER_36_189
*985 FILLER_36_195
*986 FILLER_36_197
*987 FILLER_36_209
*988 FILLER_36_221
*989 FILLER_36_233
*990 FILLER_36_245
*991 FILLER_36_251
*992 FILLER_36_253
*993 FILLER_36_265
*994 FILLER_36_27
*995 FILLER_36_277
*996 FILLER_36_289
*997 FILLER_36_29
*998 FILLER_36_297
*999 FILLER_36_3
*1000 FILLER_36_41
*1001 FILLER_36_53
*1002 FILLER_36_65
*1003 FILLER_36_77
*1004 FILLER_36_83
*1005 FILLER_36_85
*1006 FILLER_36_97
*1007 FILLER_37_105
*1008 FILLER_37_111
*1009 FILLER_37_113
*1010 FILLER_37_125
*1011 FILLER_37_137
*1012 FILLER_37_149
*1013 FILLER_37_16
*1014 FILLER_37_161
*1015 FILLER_37_167
*1016 FILLER_37_169
*1017 FILLER_37_181
*1018 FILLER_37_193
*1019 FILLER_37_205
*1020 FILLER_37_217
*1021 FILLER_37_223
*1022 FILLER_37_225
*1023 FILLER_37_237
*1024 FILLER_37_249
*1025 FILLER_37_261
*1026 FILLER_37_273
*1027 FILLER_37_279
*1028 FILLER_37_281
*1029 FILLER_37_293
*1030 FILLER_37_3
*1031 FILLER_37_32
*1032 FILLER_37_44
*1033 FILLER_37_57
*1034 FILLER_37_69
*1035 FILLER_37_81
*1036 FILLER_37_9
*1037 FILLER_37_93
*1038 FILLER_38_109
*1039 FILLER_38_11
*1040 FILLER_38_121
*1041 FILLER_38_133
*1042 FILLER_38_139
*1043 FILLER_38_141
*1044 FILLER_38_153
*1045 FILLER_38_16
*1046 FILLER_38_165
*1047 FILLER_38_177
*1048 FILLER_38_189
*1049 FILLER_38_195
*1050 FILLER_38_197
*1051 FILLER_38_209
*1052 FILLER_38_221
*1053 FILLER_38_233
*1054 FILLER_38_245
*1055 FILLER_38_251
*1056 FILLER_38_253
*1057 FILLER_38_265
*1058 FILLER_38_277
*1059 FILLER_38_289
*1060 FILLER_38_29
*1061 FILLER_38_297
*1062 FILLER_38_3
*1063 FILLER_38_41
*1064 FILLER_38_47
*1065 FILLER_38_59
*1066 FILLER_38_71
*1067 FILLER_38_83
*1068 FILLER_38_85
*1069 FILLER_38_97
*1070 FILLER_39_105
*1071 FILLER_39_111
*1072 FILLER_39_113
*1073 FILLER_39_125
*1074 FILLER_39_137
*1075 FILLER_39_149
*1076 FILLER_39_161
*1077 FILLER_39_167
*1078 FILLER_39_169
*1079 FILLER_39_181
*1080 FILLER_39_193
*1081 FILLER_39_205
*1082 FILLER_39_21
*1083 FILLER_39_217
*1084 FILLER_39_223
*1085 FILLER_39_225
*1086 FILLER_39_237
*1087 FILLER_39_249
*1088 FILLER_39_261
*1089 FILLER_39_273
*1090 FILLER_39_279
*1091 FILLER_39_281
*1092 FILLER_39_293
*1093 FILLER_39_3
*1094 FILLER_39_33
*1095 FILLER_39_45
*1096 FILLER_39_53
*1097 FILLER_39_57
*1098 FILLER_39_69
*1099 FILLER_39_81
*1100 FILLER_39_9
*1101 FILLER_39_93
*1102 FILLER_3_105
*1103 FILLER_3_111
*1104 FILLER_3_113
*1105 FILLER_3_125
*1106 FILLER_3_137
*1107 FILLER_3_149
*1108 FILLER_3_15
*1109 FILLER_3_161
*1110 FILLER_3_167
*1111 FILLER_3_169
*1112 FILLER_3_181
*1113 FILLER_3_19
*1114 FILLER_3_193
*1115 FILLER_3_205
*1116 FILLER_3_217
*1117 FILLER_3_223
*1118 FILLER_3_225
*1119 FILLER_3_237
*1120 FILLER_3_249
*1121 FILLER_3_261
*1122 FILLER_3_273
*1123 FILLER_3_279
*1124 FILLER_3_281
*1125 FILLER_3_293
*1126 FILLER_3_3
*1127 FILLER_3_37
*1128 FILLER_3_49
*1129 FILLER_3_55
*1130 FILLER_3_57
*1131 FILLER_3_69
*1132 FILLER_3_81
*1133 FILLER_3_93
*1134 FILLER_40_109
*1135 FILLER_40_121
*1136 FILLER_40_133
*1137 FILLER_40_139
*1138 FILLER_40_141
*1139 FILLER_40_15
*1140 FILLER_40_153
*1141 FILLER_40_165
*1142 FILLER_40_177
*1143 FILLER_40_189
*1144 FILLER_40_195
*1145 FILLER_40_197
*1146 FILLER_40_209
*1147 FILLER_40_21
*1148 FILLER_40_221
*1149 FILLER_40_233
*1150 FILLER_40_245
*1151 FILLER_40_251
*1152 FILLER_40_253
*1153 FILLER_40_265
*1154 FILLER_40_27
*1155 FILLER_40_277
*1156 FILLER_40_289
*1157 FILLER_40_29
*1158 FILLER_40_297
*1159 FILLER_40_3
*1160 FILLER_40_41
*1161 FILLER_40_53
*1162 FILLER_40_65
*1163 FILLER_40_77
*1164 FILLER_40_83
*1165 FILLER_40_85
*1166 FILLER_40_97
*1167 FILLER_41_105
*1168 FILLER_41_11
*1169 FILLER_41_111
*1170 FILLER_41_113
*1171 FILLER_41_125
*1172 FILLER_41_137
*1173 FILLER_41_149
*1174 FILLER_41_161
*1175 FILLER_41_167
*1176 FILLER_41_169
*1177 FILLER_41_181
*1178 FILLER_41_193
*1179 FILLER_41_205
*1180 FILLER_41_217
*1181 FILLER_41_223
*1182 FILLER_41_225
*1183 FILLER_41_23
*1184 FILLER_41_237
*1185 FILLER_41_249
*1186 FILLER_41_261
*1187 FILLER_41_273
*1188 FILLER_41_279
*1189 FILLER_41_281
*1190 FILLER_41_293
*1191 FILLER_41_3
*1192 FILLER_41_35
*1193 FILLER_41_47
*1194 FILLER_41_55
*1195 FILLER_41_57
*1196 FILLER_41_69
*1197 FILLER_41_81
*1198 FILLER_41_93
*1199 FILLER_42_109
*1200 FILLER_42_121
*1201 FILLER_42_133
*1202 FILLER_42_139
*1203 FILLER_42_141
*1204 FILLER_42_15
*1205 FILLER_42_153
*1206 FILLER_42_165
*1207 FILLER_42_177
*1208 FILLER_42_189
*1209 FILLER_42_195
*1210 FILLER_42_197
*1211 FILLER_42_209
*1212 FILLER_42_221
*1213 FILLER_42_233
*1214 FILLER_42_245
*1215 FILLER_42_25
*1216 FILLER_42_251
*1217 FILLER_42_253
*1218 FILLER_42_265
*1219 FILLER_42_277
*1220 FILLER_42_289
*1221 FILLER_42_29
*1222 FILLER_42_297
*1223 FILLER_42_3
*1224 FILLER_42_41
*1225 FILLER_42_53
*1226 FILLER_42_65
*1227 FILLER_42_77
*1228 FILLER_42_83
*1229 FILLER_42_85
*1230 FILLER_42_97
*1231 FILLER_43_105
*1232 FILLER_43_111
*1233 FILLER_43_113
*1234 FILLER_43_125
*1235 FILLER_43_137
*1236 FILLER_43_149
*1237 FILLER_43_15
*1238 FILLER_43_161
*1239 FILLER_43_167
*1240 FILLER_43_169
*1241 FILLER_43_181
*1242 FILLER_43_193
*1243 FILLER_43_205
*1244 FILLER_43_217
*1245 FILLER_43_223
*1246 FILLER_43_225
*1247 FILLER_43_237
*1248 FILLER_43_249
*1249 FILLER_43_261
*1250 FILLER_43_27
*1251 FILLER_43_273
*1252 FILLER_43_279
*1253 FILLER_43_281
*1254 FILLER_43_293
*1255 FILLER_43_3
*1256 FILLER_43_39
*1257 FILLER_43_51
*1258 FILLER_43_55
*1259 FILLER_43_57
*1260 FILLER_43_69
*1261 FILLER_43_81
*1262 FILLER_43_93
*1263 FILLER_44_109
*1264 FILLER_44_121
*1265 FILLER_44_133
*1266 FILLER_44_139
*1267 FILLER_44_141
*1268 FILLER_44_15
*1269 FILLER_44_153
*1270 FILLER_44_165
*1271 FILLER_44_177
*1272 FILLER_44_189
*1273 FILLER_44_195
*1274 FILLER_44_197
*1275 FILLER_44_209
*1276 FILLER_44_221
*1277 FILLER_44_233
*1278 FILLER_44_245
*1279 FILLER_44_251
*1280 FILLER_44_253
*1281 FILLER_44_265
*1282 FILLER_44_27
*1283 FILLER_44_277
*1284 FILLER_44_289
*1285 FILLER_44_29
*1286 FILLER_44_297
*1287 FILLER_44_3
*1288 FILLER_44_41
*1289 FILLER_44_53
*1290 FILLER_44_65
*1291 FILLER_44_77
*1292 FILLER_44_83
*1293 FILLER_44_85
*1294 FILLER_44_97
*1295 FILLER_45_105
*1296 FILLER_45_111
*1297 FILLER_45_113
*1298 FILLER_45_125
*1299 FILLER_45_137
*1300 FILLER_45_149
*1301 FILLER_45_15
*1302 FILLER_45_161
*1303 FILLER_45_167
*1304 FILLER_45_169
*1305 FILLER_45_181
*1306 FILLER_45_193
*1307 FILLER_45_205
*1308 FILLER_45_217
*1309 FILLER_45_223
*1310 FILLER_45_225
*1311 FILLER_45_237
*1312 FILLER_45_249
*1313 FILLER_45_261
*1314 FILLER_45_27
*1315 FILLER_45_273
*1316 FILLER_45_279
*1317 FILLER_45_281
*1318 FILLER_45_293
*1319 FILLER_45_3
*1320 FILLER_45_39
*1321 FILLER_45_51
*1322 FILLER_45_55
*1323 FILLER_45_57
*1324 FILLER_45_69
*1325 FILLER_45_81
*1326 FILLER_45_93
*1327 FILLER_46_109
*1328 FILLER_46_121
*1329 FILLER_46_133
*1330 FILLER_46_139
*1331 FILLER_46_141
*1332 FILLER_46_15
*1333 FILLER_46_153
*1334 FILLER_46_165
*1335 FILLER_46_177
*1336 FILLER_46_189
*1337 FILLER_46_195
*1338 FILLER_46_197
*1339 FILLER_46_209
*1340 FILLER_46_221
*1341 FILLER_46_233
*1342 FILLER_46_245
*1343 FILLER_46_251
*1344 FILLER_46_253
*1345 FILLER_46_265
*1346 FILLER_46_27
*1347 FILLER_46_277
*1348 FILLER_46_289
*1349 FILLER_46_29
*1350 FILLER_46_297
*1351 FILLER_46_3
*1352 FILLER_46_41
*1353 FILLER_46_53
*1354 FILLER_46_65
*1355 FILLER_46_77
*1356 FILLER_46_83
*1357 FILLER_46_85
*1358 FILLER_46_97
*1359 FILLER_47_105
*1360 FILLER_47_111
*1361 FILLER_47_113
*1362 FILLER_47_125
*1363 FILLER_47_137
*1364 FILLER_47_149
*1365 FILLER_47_15
*1366 FILLER_47_161
*1367 FILLER_47_167
*1368 FILLER_47_169
*1369 FILLER_47_181
*1370 FILLER_47_193
*1371 FILLER_47_205
*1372 FILLER_47_217
*1373 FILLER_47_223
*1374 FILLER_47_225
*1375 FILLER_47_237
*1376 FILLER_47_249
*1377 FILLER_47_261
*1378 FILLER_47_27
*1379 FILLER_47_273
*1380 FILLER_47_279
*1381 FILLER_47_281
*1382 FILLER_47_293
*1383 FILLER_47_3
*1384 FILLER_47_39
*1385 FILLER_47_51
*1386 FILLER_47_55
*1387 FILLER_47_57
*1388 FILLER_47_69
*1389 FILLER_47_81
*1390 FILLER_47_93
*1391 FILLER_48_109
*1392 FILLER_48_121
*1393 FILLER_48_133
*1394 FILLER_48_139
*1395 FILLER_48_141
*1396 FILLER_48_15
*1397 FILLER_48_153
*1398 FILLER_48_165
*1399 FILLER_48_177
*1400 FILLER_48_189
*1401 FILLER_48_195
*1402 FILLER_48_197
*1403 FILLER_48_209
*1404 FILLER_48_221
*1405 FILLER_48_233
*1406 FILLER_48_245
*1407 FILLER_48_251
*1408 FILLER_48_253
*1409 FILLER_48_265
*1410 FILLER_48_27
*1411 FILLER_48_277
*1412 FILLER_48_289
*1413 FILLER_48_29
*1414 FILLER_48_297
*1415 FILLER_48_3
*1416 FILLER_48_41
*1417 FILLER_48_53
*1418 FILLER_48_65
*1419 FILLER_48_77
*1420 FILLER_48_83
*1421 FILLER_48_85
*1422 FILLER_48_97
*1423 FILLER_49_105
*1424 FILLER_49_111
*1425 FILLER_49_113
*1426 FILLER_49_125
*1427 FILLER_49_137
*1428 FILLER_49_149
*1429 FILLER_49_15
*1430 FILLER_49_161
*1431 FILLER_49_167
*1432 FILLER_49_169
*1433 FILLER_49_181
*1434 FILLER_49_193
*1435 FILLER_49_205
*1436 FILLER_49_217
*1437 FILLER_49_223
*1438 FILLER_49_225
*1439 FILLER_49_237
*1440 FILLER_49_249
*1441 FILLER_49_261
*1442 FILLER_49_27
*1443 FILLER_49_273
*1444 FILLER_49_279
*1445 FILLER_49_281
*1446 FILLER_49_293
*1447 FILLER_49_3
*1448 FILLER_49_39
*1449 FILLER_49_51
*1450 FILLER_49_55
*1451 FILLER_49_57
*1452 FILLER_49_69
*1453 FILLER_49_81
*1454 FILLER_49_93
*1455 FILLER_4_109
*1456 FILLER_4_121
*1457 FILLER_4_133
*1458 FILLER_4_139
*1459 FILLER_4_141
*1460 FILLER_4_153
*1461 FILLER_4_165
*1462 FILLER_4_177
*1463 FILLER_4_189
*1464 FILLER_4_195
*1465 FILLER_4_197
*1466 FILLER_4_209
*1467 FILLER_4_22
*1468 FILLER_4_221
*1469 FILLER_4_233
*1470 FILLER_4_245
*1471 FILLER_4_251
*1472 FILLER_4_253
*1473 FILLER_4_265
*1474 FILLER_4_277
*1475 FILLER_4_289
*1476 FILLER_4_29
*1477 FILLER_4_297
*1478 FILLER_4_3
*1479 FILLER_4_51
*1480 FILLER_4_71
*1481 FILLER_4_83
*1482 FILLER_4_85
*1483 FILLER_4_97
*1484 FILLER_50_109
*1485 FILLER_50_121
*1486 FILLER_50_133
*1487 FILLER_50_139
*1488 FILLER_50_141
*1489 FILLER_50_15
*1490 FILLER_50_153
*1491 FILLER_50_165
*1492 FILLER_50_177
*1493 FILLER_50_189
*1494 FILLER_50_195
*1495 FILLER_50_197
*1496 FILLER_50_209
*1497 FILLER_50_221
*1498 FILLER_50_233
*1499 FILLER_50_245
*1500 FILLER_50_251
*1501 FILLER_50_253
*1502 FILLER_50_265
*1503 FILLER_50_27
*1504 FILLER_50_277
*1505 FILLER_50_289
*1506 FILLER_50_29
*1507 FILLER_50_297
*1508 FILLER_50_3
*1509 FILLER_50_41
*1510 FILLER_50_53
*1511 FILLER_50_65
*1512 FILLER_50_77
*1513 FILLER_50_83
*1514 FILLER_50_85
*1515 FILLER_50_97
*1516 FILLER_51_105
*1517 FILLER_51_111
*1518 FILLER_51_113
*1519 FILLER_51_125
*1520 FILLER_51_137
*1521 FILLER_51_149
*1522 FILLER_51_15
*1523 FILLER_51_161
*1524 FILLER_51_167
*1525 FILLER_51_169
*1526 FILLER_51_181
*1527 FILLER_51_193
*1528 FILLER_51_205
*1529 FILLER_51_217
*1530 FILLER_51_223
*1531 FILLER_51_225
*1532 FILLER_51_237
*1533 FILLER_51_249
*1534 FILLER_51_261
*1535 FILLER_51_27
*1536 FILLER_51_273
*1537 FILLER_51_279
*1538 FILLER_51_281
*1539 FILLER_51_293
*1540 FILLER_51_3
*1541 FILLER_51_39
*1542 FILLER_51_51
*1543 FILLER_51_55
*1544 FILLER_51_57
*1545 FILLER_51_69
*1546 FILLER_51_81
*1547 FILLER_51_93
*1548 FILLER_52_109
*1549 FILLER_52_121
*1550 FILLER_52_133
*1551 FILLER_52_139
*1552 FILLER_52_141
*1553 FILLER_52_15
*1554 FILLER_52_153
*1555 FILLER_52_165
*1556 FILLER_52_177
*1557 FILLER_52_189
*1558 FILLER_52_195
*1559 FILLER_52_197
*1560 FILLER_52_209
*1561 FILLER_52_221
*1562 FILLER_52_233
*1563 FILLER_52_245
*1564 FILLER_52_251
*1565 FILLER_52_253
*1566 FILLER_52_265
*1567 FILLER_52_27
*1568 FILLER_52_277
*1569 FILLER_52_289
*1570 FILLER_52_29
*1571 FILLER_52_297
*1572 FILLER_52_3
*1573 FILLER_52_41
*1574 FILLER_52_53
*1575 FILLER_52_65
*1576 FILLER_52_77
*1577 FILLER_52_83
*1578 FILLER_52_85
*1579 FILLER_52_97
*1580 FILLER_53_105
*1581 FILLER_53_111
*1582 FILLER_53_113
*1583 FILLER_53_125
*1584 FILLER_53_137
*1585 FILLER_53_149
*1586 FILLER_53_15
*1587 FILLER_53_161
*1588 FILLER_53_167
*1589 FILLER_53_169
*1590 FILLER_53_181
*1591 FILLER_53_193
*1592 FILLER_53_205
*1593 FILLER_53_217