*SPEF "ieee 1481-1999"
*DESIGN "udxs_sqrt_top"
*DATE "11:11:11 Fri 11 11, 1111"
*VENDOR "OpenRCX"
*PROGRAM "Parallel Extraction"
*VERSION "1.0"
*DESIGN_FLOW "NAME_SCOPE LOCAL" "PIN_CAP NONE"
*DIVIDER /
*DELIMITER :
*BUS_DELIMITER []
*T_UNIT 1 NS
*C_UNIT 1 PF
*R_UNIT 1 OHM
*L_UNIT 1 HENRY

*NAME_MAP
*1 io_in[0]
*2 io_in[1]
*3 io_in[2]
*4 io_in[3]
*5 io_in[4]
*6 io_in[5]
*7 io_in[6]
*8 io_in[7]
*9 io_out[0]
*10 io_out[1]
*11 io_out[2]
*12 io_out[3]
*13 io_out[4]
*14 io_out[5]
*15 net8
*16 net9
*19 _000_
*20 _001_
*21 _002_
*22 _003_
*23 _004_
*24 _005_
*25 _006_
*26 _007_
*27 _008_
*28 _009_
*29 _010_
*30 _011_
*31 _012_
*32 _013_
*33 _014_
*34 _015_
*35 _016_
*36 _017_
*37 _018_
*38 _019_
*39 _020_
*40 _021_
*41 _022_
*42 _023_
*43 _024_
*44 _025_
*45 _026_
*46 _027_
*47 _028_
*48 _029_
*49 _030_
*50 _031_
*51 _032_
*52 _033_
*53 _034_
*54 _035_
*55 _036_
*56 _037_
*57 _038_
*58 _039_
*59 _040_
*60 _041_
*61 _042_
*62 _043_
*63 _044_
*64 _045_
*65 _046_
*66 _047_
*67 _048_
*68 _049_
*69 _050_
*70 _051_
*71 _052_
*72 _053_
*73 _054_
*74 _055_
*75 _056_
*76 _057_
*77 _058_
*78 _059_
*79 _060_
*80 _061_
*81 _062_
*82 _063_
*83 _064_
*84 _065_
*85 _066_
*86 _067_
*87 _068_
*88 _069_
*89 _070_
*90 _071_
*91 _072_
*92 _073_
*93 _074_
*94 _075_
*95 _076_
*96 _077_
*97 _078_
*98 _079_
*99 _080_
*100 _081_
*101 _082_
*102 _083_
*103 _084_
*104 _085_
*105 _086_
*106 _087_
*107 _088_
*108 _089_
*109 _090_
*110 _091_
*111 _092_
*112 _093_
*113 _094_
*114 _095_
*115 _096_
*116 _097_
*117 _098_
*118 _099_
*119 _100_
*120 _101_
*121 _102_
*122 _103_
*123 _104_
*124 _105_
*125 _106_
*126 _107_
*127 _108_
*128 _109_
*129 _110_
*130 _111_
*131 _112_
*132 _113_
*133 _114_
*134 _115_
*135 _116_
*136 _117_
*137 _118_
*138 _119_
*139 _120_
*140 _121_
*141 _122_
*142 _123_
*143 _124_
*144 _125_
*145 _126_
*146 _127_
*147 _128_
*148 _129_
*149 _130_
*150 _131_
*151 _132_
*152 _133_
*153 _134_
*154 _135_
*155 _136_
*156 _137_
*157 _138_
*158 _139_
*159 _140_
*160 _141_
*161 _142_
*162 _143_
*163 _144_
*164 _145_
*165 _146_
*166 _147_
*167 _148_
*168 _149_
*169 _150_
*170 _151_
*171 _152_
*172 _153_
*173 _154_
*174 _155_
*175 _156_
*176 _157_
*177 _158_
*178 _159_
*179 _160_
*180 _161_
*181 _162_
*182 _163_
*183 _164_
*184 _165_
*185 _166_
*186 _167_
*187 _168_
*188 _169_
*189 _170_
*190 _171_
*191 _172_
*192 _173_
*193 _174_
*194 _175_
*195 _176_
*196 _177_
*197 _178_
*198 _179_
*199 _180_
*200 _181_
*201 _182_
*202 _183_
*203 _184_
*204 _185_
*205 _186_
*206 _187_
*207 _188_
*208 _189_
*209 _190_
*210 _191_
*211 _192_
*212 _193_
*213 _194_
*214 _195_
*215 _196_
*216 _197_
*217 _198_
*218 _199_
*219 _200_
*220 _201_
*221 _202_
*222 _203_
*223 _204_
*224 _205_
*225 _206_
*226 _207_
*227 _208_
*228 _209_
*229 _210_
*230 _211_
*231 _212_
*232 _213_
*233 _214_
*234 _215_
*235 _216_
*236 _217_
*237 _218_
*238 _219_
*239 _220_
*240 _221_
*241 _222_
*242 _223_
*243 _224_
*244 _225_
*245 _226_
*246 _227_
*247 _228_
*248 _229_
*249 _230_
*250 _231_
*251 _232_
*252 _233_
*253 _234_
*254 _235_
*255 _236_
*256 _237_
*257 _238_
*258 _239_
*259 _240_
*260 _241_
*261 _242_
*262 _243_
*263 _244_
*264 _245_
*265 _246_
*266 _247_
*267 _248_
*268 _249_
*269 _250_
*270 _251_
*271 _252_
*272 _253_
*273 _254_
*274 _255_
*275 _256_
*276 _257_
*277 _258_
*278 _259_
*279 _260_
*280 _261_
*281 _262_
*282 _263_
*283 _264_
*284 _265_
*285 _266_
*286 _267_
*287 _268_
*288 _269_
*289 _270_
*290 _271_
*291 _272_
*292 _273_
*293 _274_
*294 _275_
*295 clknet_0_io_in[0]
*296 clknet_1_0__leaf_io_in[0]
*297 clknet_1_1__leaf_io_in[0]
*298 net1
*299 net2
*300 net3
*301 net4
*302 net5
*303 net6
*304 net7
*305 sqrt_core\.att\[2\]
*306 sqrt_core\.att\[4\]
*307 sqrt_core\.att\[6\]
*308 sqrt_core\.eps\[0\]
*309 sqrt_core\.eps\[10\]
*310 sqrt_core\.eps\[1\]
*311 sqrt_core\.eps\[2\]
*312 sqrt_core\.eps\[3\]
*313 sqrt_core\.eps\[4\]
*314 sqrt_core\.eps\[5\]
*315 sqrt_core\.eps\[6\]
*316 sqrt_core\.eps\[7\]
*317 sqrt_core\.eps\[8\]
*318 sqrt_core\.eps\[9\]
*319 sqrt_core\.iteration\[0\]
*320 sqrt_core\.iteration\[1\]
*321 sqrt_core\.iteratorA\.prev_res\[0\]
*322 sqrt_core\.iteratorA\.prev_res\[1\]
*323 sqrt_core\.iteratorA\.prev_res\[2\]
*324 sqrt_core\.iteratorA\.prev_res\[3\]
*325 sqrt_core\.iteratorA\.prev_res\[4\]
*326 sqrt_core\.iteratorA\.prev_res\[5\]
*327 FILLER_0_109
*328 FILLER_0_113
*329 FILLER_0_125
*330 FILLER_0_137
*331 FILLER_0_141
*332 FILLER_0_15
*333 FILLER_0_153
*334 FILLER_0_165
*335 FILLER_0_169
*336 FILLER_0_181
*337 FILLER_0_193
*338 FILLER_0_197
*339 FILLER_0_209
*340 FILLER_0_221
*341 FILLER_0_225
*342 FILLER_0_237
*343 FILLER_0_249
*344 FILLER_0_253
*345 FILLER_0_265
*346 FILLER_0_27
*347 FILLER_0_277
*348 FILLER_0_281
*349 FILLER_0_29
*350 FILLER_0_293
*351 FILLER_0_3
*352 FILLER_0_41
*353 FILLER_0_53
*354 FILLER_0_57
*355 FILLER_0_69
*356 FILLER_0_81
*357 FILLER_0_85
*358 FILLER_0_97
*359 FILLER_10_109
*360 FILLER_10_116
*361 FILLER_10_128
*362 FILLER_10_14
*363 FILLER_10_141
*364 FILLER_10_153
*365 FILLER_10_165
*366 FILLER_10_177
*367 FILLER_10_189
*368 FILLER_10_195
*369 FILLER_10_197
*370 FILLER_10_209
*371 FILLER_10_221
*372 FILLER_10_233
*373 FILLER_10_245
*374 FILLER_10_25
*375 FILLER_10_251
*376 FILLER_10_253
*377 FILLER_10_265
*378 FILLER_10_277
*379 FILLER_10_289
*380 FILLER_10_29
*381 FILLER_10_297
*382 FILLER_10_3
*383 FILLER_10_35
*384 FILLER_10_45
*385 FILLER_10_56
*386 FILLER_10_66
*387 FILLER_10_75
*388 FILLER_10_83
*389 FILLER_10_85
*390 FILLER_10_95
*391 FILLER_10_99
*392 FILLER_11_100
*393 FILLER_11_110
*394 FILLER_11_113
*395 FILLER_11_125
*396 FILLER_11_137
*397 FILLER_11_149
*398 FILLER_11_161
*399 FILLER_11_167
*400 FILLER_11_169
*401 FILLER_11_181
*402 FILLER_11_193
*403 FILLER_11_205
*404 FILLER_11_21
*405 FILLER_11_217
*406 FILLER_11_223
*407 FILLER_11_225
*408 FILLER_11_237
*409 FILLER_11_249
*410 FILLER_11_261
*411 FILLER_11_273
*412 FILLER_11_279
*413 FILLER_11_28
*414 FILLER_11_281
*415 FILLER_11_293
*416 FILLER_11_3
*417 FILLER_11_39
*418 FILLER_11_51
*419 FILLER_11_55
*420 FILLER_11_57
*421 FILLER_11_68
*422 FILLER_11_85
*423 FILLER_11_96
*424 FILLER_12_109
*425 FILLER_12_121
*426 FILLER_12_133
*427 FILLER_12_139
*428 FILLER_12_141
*429 FILLER_12_153
*430 FILLER_12_165
*431 FILLER_12_177
*432 FILLER_12_189
*433 FILLER_12_195
*434 FILLER_12_197
*435 FILLER_12_209
*436 FILLER_12_221
*437 FILLER_12_233
*438 FILLER_12_245
*439 FILLER_12_25
*440 FILLER_12_251
*441 FILLER_12_253
*442 FILLER_12_265
*443 FILLER_12_277
*444 FILLER_12_289
*445 FILLER_12_29
*446 FILLER_12_297
*447 FILLER_12_3
*448 FILLER_12_41
*449 FILLER_12_49
*450 FILLER_12_57
*451 FILLER_12_65
*452 FILLER_12_72
*453 FILLER_12_8
*454 FILLER_12_85
*455 FILLER_12_97
*456 FILLER_13_108
*457 FILLER_13_113
*458 FILLER_13_122
*459 FILLER_13_134
*460 FILLER_13_146
*461 FILLER_13_15
*462 FILLER_13_158
*463 FILLER_13_166
*464 FILLER_13_169
*465 FILLER_13_181
*466 FILLER_13_193
*467 FILLER_13_205
*468 FILLER_13_217
*469 FILLER_13_22
*470 FILLER_13_223
*471 FILLER_13_225
*472 FILLER_13_237
*473 FILLER_13_249
*474 FILLER_13_261
*475 FILLER_13_273
*476 FILLER_13_279
*477 FILLER_13_281
*478 FILLER_13_293
*479 FILLER_13_3
*480 FILLER_13_31
*481 FILLER_13_44
*482 FILLER_13_50
*483 FILLER_13_54
*484 FILLER_13_57
*485 FILLER_13_70
*486 FILLER_13_78
*487 FILLER_13_8
*488 FILLER_13_88
*489 FILLER_13_94
*490 FILLER_14_108
*491 FILLER_14_118
*492 FILLER_14_125
*493 FILLER_14_137
*494 FILLER_14_14
*495 FILLER_14_141
*496 FILLER_14_153
*497 FILLER_14_165
*498 FILLER_14_177
*499 FILLER_14_189
*500 FILLER_14_195
*501 FILLER_14_197
*502 FILLER_14_209
*503 FILLER_14_221
*504 FILLER_14_233
*505 FILLER_14_245
*506 FILLER_14_251
*507 FILLER_14_253
*508 FILLER_14_26
*509 FILLER_14_265
*510 FILLER_14_277
*511 FILLER_14_289
*512 FILLER_14_29
*513 FILLER_14_297
*514 FILLER_14_3
*515 FILLER_14_37
*516 FILLER_14_41
*517 FILLER_14_45
*518 FILLER_14_53
*519 FILLER_14_63
*520 FILLER_14_77
*521 FILLER_14_83
*522 FILLER_14_85
*523 FILLER_14_94
*524 FILLER_15_108
*525 FILLER_15_113
*526 FILLER_15_122
*527 FILLER_15_134
*528 FILLER_15_146
*529 FILLER_15_158
*530 FILLER_15_166
*531 FILLER_15_169
*532 FILLER_15_181
*533 FILLER_15_193
*534 FILLER_15_205
*535 FILLER_15_21
*536 FILLER_15_217
*537 FILLER_15_223
*538 FILLER_15_225
*539 FILLER_15_237
*540 FILLER_15_249
*541 FILLER_15_25
*542 FILLER_15_261
*543 FILLER_15_273
*544 FILLER_15_279
*545 FILLER_15_281
*546 FILLER_15_29
*547 FILLER_15_293
*548 FILLER_15_3
*549 FILLER_15_37
*550 FILLER_15_43
*551 FILLER_15_49
*552 FILLER_15_53
*553 FILLER_15_57
*554 FILLER_15_62
*555 FILLER_15_74
*556 FILLER_15_85
*557 FILLER_15_97
*558 FILLER_16_109
*559 FILLER_16_124
*560 FILLER_16_136
*561 FILLER_16_14
*562 FILLER_16_141
*563 FILLER_16_153
*564 FILLER_16_165
*565 FILLER_16_177
*566 FILLER_16_189
*567 FILLER_16_195
*568 FILLER_16_197
*569 FILLER_16_209
*570 FILLER_16_221
*571 FILLER_16_233
*572 FILLER_16_245
*573 FILLER_16_251
*574 FILLER_16_253
*575 FILLER_16_26
*576 FILLER_16_265
*577 FILLER_16_277
*578 FILLER_16_289
*579 FILLER_16_29
*580 FILLER_16_297
*581 FILLER_16_3
*582 FILLER_16_34
*583 FILLER_16_45
*584 FILLER_16_57
*585 FILLER_16_65
*586 FILLER_16_71
*587 FILLER_16_78
*588 FILLER_16_85
*589 FILLER_16_91
*590 FILLER_16_99
*591 FILLER_17_102
*592 FILLER_17_110
*593 FILLER_17_113
*594 FILLER_17_124
*595 FILLER_17_136
*596 FILLER_17_148
*597 FILLER_17_160
*598 FILLER_17_169
*599 FILLER_17_181
*600 FILLER_17_19
*601 FILLER_17_193
*602 FILLER_17_205
*603 FILLER_17_217
*604 FILLER_17_223
*605 FILLER_17_225
*606 FILLER_17_237
*607 FILLER_17_249
*608 FILLER_17_261
*609 FILLER_17_273
*610 FILLER_17_279
*611 FILLER_17_281
*612 FILLER_17_293
*613 FILLER_17_3
*614 FILLER_17_30
*615 FILLER_17_42
*616 FILLER_17_52
*617 FILLER_17_57
*618 FILLER_17_66
*619 FILLER_17_80
*620 FILLER_17_9
*621 FILLER_18_100
*622 FILLER_18_110
*623 FILLER_18_117
*624 FILLER_18_124
*625 FILLER_18_136
*626 FILLER_18_14
*627 FILLER_18_141
*628 FILLER_18_153
*629 FILLER_18_165
*630 FILLER_18_177
*631 FILLER_18_189
*632 FILLER_18_195
*633 FILLER_18_197
*634 FILLER_18_209
*635 FILLER_18_21
*636 FILLER_18_221
*637 FILLER_18_233
*638 FILLER_18_245
*639 FILLER_18_251
*640 FILLER_18_253
*641 FILLER_18_265
*642 FILLER_18_27
*643 FILLER_18_277
*644 FILLER_18_289
*645 FILLER_18_29
*646 FILLER_18_297
*647 FILLER_18_3
*648 FILLER_18_34
*649 FILLER_18_43
*650 FILLER_18_51
*651 FILLER_18_62
*652 FILLER_18_70
*653 FILLER_18_81
*654 FILLER_18_85
*655 FILLER_18_92
*656 FILLER_19_109
*657 FILLER_19_113
*658 FILLER_19_125
*659 FILLER_19_137
*660 FILLER_19_149
*661 FILLER_19_161
*662 FILLER_19_167
*663 FILLER_19_169
*664 FILLER_19_181
*665 FILLER_19_193
*666 FILLER_19_205
*667 FILLER_19_21
*668 FILLER_19_217
*669 FILLER_19_223
*670 FILLER_19_225
*671 FILLER_19_237
*672 FILLER_19_249
*673 FILLER_19_261
*674 FILLER_19_273
*675 FILLER_19_279
*676 FILLER_19_281
*677 FILLER_19_293
*678 FILLER_19_3
*679 FILLER_19_34
*680 FILLER_19_45
*681 FILLER_19_53
*682 FILLER_19_57
*683 FILLER_19_62
*684 FILLER_19_73
*685 FILLER_19_82
*686 FILLER_19_99
*687 FILLER_1_105
*688 FILLER_1_111
*689 FILLER_1_113
*690 FILLER_1_125
*691 FILLER_1_137
*692 FILLER_1_149
*693 FILLER_1_15
*694 FILLER_1_161
*695 FILLER_1_167
*696 FILLER_1_169
*697 FILLER_1_181
*698 FILLER_1_193
*699 FILLER_1_205
*700 FILLER_1_217
*701 FILLER_1_223
*702 FILLER_1_225
*703 FILLER_1_237
*704 FILLER_1_249
*705 FILLER_1_261
*706 FILLER_1_27
*707 FILLER_1_273
*708 FILLER_1_279
*709 FILLER_1_281
*710 FILLER_1_293
*711 FILLER_1_3
*712 FILLER_1_39
*713 FILLER_1_51
*714 FILLER_1_55
*715 FILLER_1_57
*716 FILLER_1_69
*717 FILLER_1_81
*718 FILLER_1_93
*719 FILLER_20_100
*720 FILLER_20_111
*721 FILLER_20_121
*722 FILLER_20_133
*723 FILLER_20_139
*724 FILLER_20_141
*725 FILLER_20_15
*726 FILLER_20_153
*727 FILLER_20_165
*728 FILLER_20_177
*729 FILLER_20_189
*730 FILLER_20_19
*731 FILLER_20_195
*732 FILLER_20_197
*733 FILLER_20_209
*734 FILLER_20_221
*735 FILLER_20_233
*736 FILLER_20_245
*737 FILLER_20_251
*738 FILLER_20_253
*739 FILLER_20_26
*740 FILLER_20_265
*741 FILLER_20_277
*742 FILLER_20_289
*743 FILLER_20_29
*744 FILLER_20_297
*745 FILLER_20_3
*746 FILLER_20_41
*747 FILLER_20_47
*748 FILLER_20_61
*749 FILLER_20_78
*750 FILLER_20_8
*751 FILLER_20_85
*752 FILLER_20_90
*753 FILLER_20_94
*754 FILLER_21_100
*755 FILLER_21_108
*756 FILLER_21_113
*757 FILLER_21_122
*758 FILLER_21_134
*759 FILLER_21_146
*760 FILLER_21_158
*761 FILLER_21_166
*762 FILLER_21_169
*763 FILLER_21_181
*764 FILLER_21_193
*765 FILLER_21_205
*766 FILLER_21_217
*767 FILLER_21_223
*768 FILLER_21_225
*769 FILLER_21_237
*770 FILLER_21_249
*771 FILLER_21_261
*772 FILLER_21_273
*773 FILLER_21_279
*774 FILLER_21_281
*775 FILLER_21_293
*776 FILLER_21_3
*777 FILLER_21_36
*778 FILLER_21_43
*779 FILLER_21_47
*780 FILLER_21_54
*781 FILLER_21_57
*782 FILLER_21_62
*783 FILLER_21_72
*784 FILLER_21_8
*785 FILLER_21_81
*786 FILLER_21_89
*787 FILLER_21_93
*788 FILLER_22_103
*789 FILLER_22_117
*790 FILLER_22_128
*791 FILLER_22_141
*792 FILLER_22_153
*793 FILLER_22_165
*794 FILLER_22_177
*795 FILLER_22_189
*796 FILLER_22_195
*797 FILLER_22_197
*798 FILLER_22_209
*799 FILLER_22_21
*800 FILLER_22_221
*801 FILLER_22_233
*802 FILLER_22_245
*803 FILLER_22_251
*804 FILLER_22_253
*805 FILLER_22_265
*806 FILLER_22_27
*807 FILLER_22_277
*808 FILLER_22_289
*809 FILLER_22_29
*810 FILLER_22_297
*811 FILLER_22_3
*812 FILLER_22_38
*813 FILLER_22_45
*814 FILLER_22_49
*815 FILLER_22_57
*816 FILLER_22_63
*817 FILLER_22_71
*818 FILLER_22_75
*819 FILLER_22_82
*820 FILLER_22_85
*821 FILLER_22_94
*822 FILLER_23_109
*823 FILLER_23_113
*824 FILLER_23_123
*825 FILLER_23_130
*826 FILLER_23_14
*827 FILLER_23_142
*828 FILLER_23_154
*829 FILLER_23_166
*830 FILLER_23_169
*831 FILLER_23_18
*832 FILLER_23_181
*833 FILLER_23_193
*834 FILLER_23_205
*835 FILLER_23_217
*836 FILLER_23_223
*837 FILLER_23_225
*838 FILLER_23_237
*839 FILLER_23_249
*840 FILLER_23_261
*841 FILLER_23_273
*842 FILLER_23_279
*843 FILLER_23_281
*844 FILLER_23_293
*845 FILLER_23_3
*846 FILLER_23_32
*847 FILLER_23_46
*848 FILLER_23_54
*849 FILLER_23_57
*850 FILLER_23_61
*851 FILLER_23_72
*852 FILLER_23_83
*853 FILLER_23_91
*854 FILLER_24_105
*855 FILLER_24_119
*856 FILLER_24_128
*857 FILLER_24_13
*858 FILLER_24_135
*859 FILLER_24_139
*860 FILLER_24_141
*861 FILLER_24_153
*862 FILLER_24_165
*863 FILLER_24_177
*864 FILLER_24_189
*865 FILLER_24_195
*866 FILLER_24_197
*867 FILLER_24_209
*868 FILLER_24_221
*869 FILLER_24_233
*870 FILLER_24_245
*871 FILLER_24_251
*872 FILLER_24_253
*873 FILLER_24_26
*874 FILLER_24_265
*875 FILLER_24_277
*876 FILLER_24_289
*877 FILLER_24_29
*878 FILLER_24_297
*879 FILLER_24_3
*880 FILLER_24_40
*881 FILLER_24_51
*882 FILLER_24_55
*883 FILLER_24_7
*884 FILLER_24_73
*885 FILLER_24_82
*886 FILLER_24_85
*887 FILLER_24_94
*888 FILLER_25_102
*889 FILLER_25_106
*890 FILLER_25_110
*891 FILLER_25_113
*892 FILLER_25_118
*893 FILLER_25_129
*894 FILLER_25_141
*895 FILLER_25_153
*896 FILLER_25_165
*897 FILLER_25_169
*898 FILLER_25_181
*899 FILLER_25_19
*900 FILLER_25_193
*901 FILLER_25_205
*902 FILLER_25_217
*903 FILLER_25_223
*904 FILLER_25_225
*905 FILLER_25_237
*906 FILLER_25_249
*907 FILLER_25_261
*908 FILLER_25_273
*909 FILLER_25_279
*910 FILLER_25_281
*911 FILLER_25_293
*912 FILLER_25_3
*913 FILLER_25_30
*914 FILLER_25_37
*915 FILLER_25_51
*916 FILLER_25_55
*917 FILLER_25_57
*918 FILLER_25_79
*919 FILLER_25_83
*920 FILLER_25_9
*921 FILLER_25_92
*922 FILLER_26_103
*923 FILLER_26_112
*924 FILLER_26_127
*925 FILLER_26_136
*926 FILLER_26_141
*927 FILLER_26_153
*928 FILLER_26_16
*929 FILLER_26_165
*930 FILLER_26_177
*931 FILLER_26_189
*932 FILLER_26_195
*933 FILLER_26_197
*934 FILLER_26_209
*935 FILLER_26_221
*936 FILLER_26_233
*937 FILLER_26_245
*938 FILLER_26_251
*939 FILLER_26_253
*940 FILLER_26_26
*941 FILLER_26_265
*942 FILLER_26_277
*943 FILLER_26_289
*944 FILLER_26_29
*945 FILLER_26_297
*946 FILLER_26_3
*947 FILLER_26_41
*948 FILLER_26_65
*949 FILLER_26_73
*950 FILLER_26_82
*951 FILLER_26_85
*952 FILLER_26_90
*953 FILLER_27_101
*954 FILLER_27_11
*955 FILLER_27_110
*956 FILLER_27_113
*957 FILLER_27_122
*958 FILLER_27_131
*959 FILLER_27_143
*960 FILLER_27_155
*961 FILLER_27_167
*962 FILLER_27_169
*963 FILLER_27_181
*964 FILLER_27_193
*965 FILLER_27_205
*966 FILLER_27_21
*967 FILLER_27_217
*968 FILLER_27_223
*969 FILLER_27_225
*970 FILLER_27_237
*971 FILLER_27_249
*972 FILLER_27_261
*973 FILLER_27_273
*974 FILLER_27_279
*975 FILLER_27_281
*976 FILLER_27_293
*977 FILLER_27_3
*978 FILLER_27_32
*979 FILLER_27_49
*980 FILLER_27_55
*981 FILLER_27_57
*982 FILLER_27_66
*983 FILLER_27_83
*984 FILLER_27_90
*985 FILLER_28_100
*986 FILLER_28_111
*987 FILLER_28_123
*988 FILLER_28_135
*989 FILLER_28_139
*990 FILLER_28_141
*991 FILLER_28_153
*992 FILLER_28_165
*993 FILLER_28_177
*994 FILLER_28_189
*995 FILLER_28_19
*996 FILLER_28_195
*997 FILLER_28_197
*998 FILLER_28_209
*999 FILLER_28_221
*1000 FILLER_28_233
*1001 FILLER_28_245
*1002 FILLER_28_251
*1003 FILLER_28_253
*1004 FILLER_28_26
*1005 FILLER_28_265
*1006 FILLER_28_277
*1007 FILLER_28_289
*1008 FILLER_28_29
*1009 FILLER_28_297
*1010 FILLER_28_3
*1011 FILLER_28_40
*1012 FILLER_28_55
*1013 FILLER_28_72
*1014 FILLER_28_82
*1015 FILLER_28_85
*1016 FILLER_28_9
*1017 FILLER_28_91
*1018 FILLER_29_106
*1019 FILLER_29_113
*1020 FILLER_29_121
*1021 FILLER_29_125
*1022 FILLER_29_131
*1023 FILLER_29_143
*1024 FILLER_29_155
*1025 FILLER_29_16
*1026 FILLER_29_167
*1027 FILLER_29_169
*1028 FILLER_29_181
*1029 FILLER_29_193
*1030 FILLER_29_205
*1031 FILLER_29_217
*1032 FILLER_29_223
*1033 FILLER_29_225
*1034 FILLER_29_237
*1035 FILLER_29_249
*1036 FILLER_29_261
*1037 FILLER_29_273
*1038 FILLER_29_279
*1039 FILLER_29_281
*1040 FILLER_29_293
*1041 FILLER_29_3
*1042 FILLER_29_36
*1043 FILLER_29_45
*1044 FILLER_29_54
*1045 FILLER_29_57
*1046 FILLER_29_72
*1047 FILLER_29_76
*1048 FILLER_29_83
*1049 FILLER_29_93
*1050 FILLER_2_109
*1051 FILLER_2_121
*1052 FILLER_2_133
*1053 FILLER_2_139
*1054 FILLER_2_141
*1055 FILLER_2_15
*1056 FILLER_2_153
*1057 FILLER_2_165
*1058 FILLER_2_177
*1059 FILLER_2_189
*1060 FILLER_2_195
*1061 FILLER_2_197
*1062 FILLER_2_209
*1063 FILLER_2_221
*1064 FILLER_2_233
*1065 FILLER_2_245
*1066 FILLER_2_251
*1067 FILLER_2_253
*1068 FILLER_2_265
*1069 FILLER_2_27
*1070 FILLER_2_277
*1071 FILLER_2_289
*1072 FILLER_2_29
*1073 FILLER_2_297
*1074 FILLER_2_3
*1075 FILLER_2_41
*1076 FILLER_2_53
*1077 FILLER_2_65
*1078 FILLER_2_77
*1079 FILLER_2_83
*1080 FILLER_2_85
*1081 FILLER_2_97
*1082 FILLER_30_102
*1083 FILLER_30_11
*1084 FILLER_30_114
*1085 FILLER_30_120
*1086 FILLER_30_128
*1087 FILLER_30_137
*1088 FILLER_30_141
*1089 FILLER_30_153
*1090 FILLER_30_165
*1091 FILLER_30_177
*1092 FILLER_30_189
*1093 FILLER_30_195
*1094 FILLER_30_197
*1095 FILLER_30_209
*1096 FILLER_30_22
*1097 FILLER_30_221
*1098 FILLER_30_233
*1099 FILLER_30_245
*1100 FILLER_30_251
*1101 FILLER_30_253
*1102 FILLER_30_265
*1103 FILLER_30_277
*1104 FILLER_30_289
*1105 FILLER_30_29
*1106 FILLER_30_297
*1107 FILLER_30_3
*1108 FILLER_30_36
*1109 FILLER_30_49
*1110 FILLER_30_56
*1111 FILLER_30_64
*1112 FILLER_30_68
*1113 FILLER_30_75
*1114 FILLER_30_82
*1115 FILLER_30_85
*1116 FILLER_30_91
*1117 FILLER_31_110
*1118 FILLER_31_113
*1119 FILLER_31_122
*1120 FILLER_31_130
*1121 FILLER_31_142
*1122 FILLER_31_154
*1123 FILLER_31_166
*1124 FILLER_31_169
*1125 FILLER_31_17
*1126 FILLER_31_181
*1127 FILLER_31_193
*1128 FILLER_31_205
*1129 FILLER_31_217
*1130 FILLER_31_223
*1131 FILLER_31_225
*1132 FILLER_31_237
*1133 FILLER_31_249
*1134 FILLER_31_26
*1135 FILLER_31_261
*1136 FILLER_31_273
*1137 FILLER_31_279
*1138 FILLER_31_281
*1139 FILLER_31_293
*1140 FILLER_31_3
*1141 FILLER_31_34
*1142 FILLER_31_40
*1143 FILLER_31_51
*1144 FILLER_31_55
*1145 FILLER_31_57
*1146 FILLER_31_7
*1147 FILLER_31_74
*1148 FILLER_31_85
*1149 FILLER_31_89
*1150 FILLER_31_98
*1151 FILLER_32_108
*1152 FILLER_32_115
*1153 FILLER_32_129
*1154 FILLER_32_138
*1155 FILLER_32_141
*1156 FILLER_32_153
*1157 FILLER_32_165
*1158 FILLER_32_177
*1159 FILLER_32_189
*1160 FILLER_32_195
*1161 FILLER_32_197
*1162 FILLER_32_209
*1163 FILLER_32_22
*1164 FILLER_32_221
*1165 FILLER_32_233
*1166 FILLER_32_245
*1167 FILLER_32_251
*1168 FILLER_32_253
*1169 FILLER_32_265
*1170 FILLER_32_277
*1171 FILLER_32_289
*1172 FILLER_32_29
*1173 FILLER_32_297
*1174 FILLER_32_3
*1175 FILLER_32_37
*1176 FILLER_32_43
*1177 FILLER_32_49
*1178 FILLER_32_57
*1179 FILLER_32_66
*1180 FILLER_32_80
*1181 FILLER_32_85
*1182 FILLER_32_97
*1183 FILLER_33_102
*1184 FILLER_33_110
*1185 FILLER_33_113
*1186 FILLER_33_120
*1187 FILLER_33_131
*1188 FILLER_33_143
*1189 FILLER_33_15
*1190 FILLER_33_155
*1191 FILLER_33_167
*1192 FILLER_33_169
*1193 FILLER_33_181
*1194 FILLER_33_193
*1195 FILLER_33_205
*1196 FILLER_33_217
*1197 FILLER_33_223
*1198 FILLER_33_225
*1199 FILLER_33_237
*1200 FILLER_33_249
*1201 FILLER_33_261
*1202 FILLER_33_273
*1203 FILLER_33_279
*1204 FILLER_33_281
*1205 FILLER_33_293
*1206 FILLER_33_3
*1207 FILLER_33_36
*1208 FILLER_33_43
*1209 FILLER_33_54
*1210 FILLER_33_57
*1211 FILLER_33_64
*1212 FILLER_33_76
*1213 FILLER_33_8
*1214 FILLER_33_84
*1215 FILLER_33_96
*1216 FILLER_34_11
*1217 FILLER_34_111
*1218 FILLER_34_119
*1219 FILLER_34_129
*1220 FILLER_34_136
*1221 FILLER_34_141
*1222 FILLER_34_153
*1223 FILLER_34_165
*1224 FILLER_34_177
*1225 FILLER_34_189
*1226 FILLER_34_195
*1227 FILLER_34_197
*1228 FILLER_34_209
*1229 FILLER_34_21
*1230 FILLER_34_221
*1231 FILLER_34_233
*1232 FILLER_34_245
*1233 FILLER_34_251
*1234 FILLER_34_253
*1235 FILLER_34_265
*1236 FILLER_34_27
*1237 FILLER_34_277
*1238 FILLER_34_289
*1239 FILLER_34_29
*1240 FILLER_34_297
*1241 FILLER_34_3
*1242 FILLER_34_48
*1243 FILLER_34_56
*1244 FILLER_34_68
*1245 FILLER_34_79
*1246 FILLER_34_83
*1247 FILLER_34_85
*1248 FILLER_34_99
*1249 FILLER_35_102
*1250 FILLER_35_110
*1251 FILLER_35_113
*1252 FILLER_35_121
*1253 FILLER_35_131
*1254 FILLER_35_143
*1255 FILLER_35_155
*1256 FILLER_35_167
*1257 FILLER_35_169
*1258 FILLER_35_181
*1259 FILLER_35_193
*1260 FILLER_35_205
*1261 FILLER_35_217
*1262 FILLER_35_22
*1263 FILLER_35_223
*1264 FILLER_35_225
*1265 FILLER_35_237
*1266 FILLER_35_249
*1267 FILLER_35_261
*1268 FILLER_35_273
*1269 FILLER_35_279
*1270 FILLER_35_281
*1271 FILLER_35_293
*1272 FILLER_35_3
*1273 FILLER_35_30
*1274 FILLER_35_34
*1275 FILLER_35_42
*1276 FILLER_35_53
*1277 FILLER_35_57
*1278 FILLER_35_65
*1279 FILLER_35_79
*1280 FILLER_36_100
*1281 FILLER_36_108
*1282 FILLER_36_115
*1283 FILLER_36_12
*1284 FILLER_36_121
*1285 FILLER_36_129
*1286 FILLER_36_137
*1287 FILLER_36_141
*1288 FILLER_36_153
*1289 FILLER_36_165
*1290 FILLER_36_177
*1291 FILLER_36_189
*1292 FILLER_36_19
*1293 FILLER_36_195
*1294 FILLER_36_197
*1295 FILLER_36_209
*1296 FILLER_36_221
*1297 FILLER_36_233
*1298 FILLER_36_245
*1299 FILLER_36_251
*1300 FILLER_36_253
*1301 FILLER_36_26
*1302 FILLER_36_265
*1303 FILLER_36_277
*1304 FILLER_36_289
*1305 FILLER_36_29
*1306 FILLER_36_297
*1307 FILLER_36_3
*1308 FILLER_36_35
*1309 FILLER_36_43
*1310 FILLER_36_63
*1311 FILLER_36_69
*1312 FILLER_36_77
*1313 FILLER_36_83
*1314 FILLER_36_85
*1315 FILLER_36_93
*1316 FILLER_37_108
*1317 FILLER_37_113
*1318 FILLER_37_124
*1319 FILLER_37_136
*1320 FILLER_37_14
*1321 FILLER_37_148
*1322 FILLER_37_160
*1323 FILLER_37_169
*1324 FILLER_37_181
*1325 FILLER_37_193
*1326 FILLER_37_205
*1327 FILLER_37_217
*1328 FILLER_37_223
*1329 FILLER_37_225
*1330 FILLER_37_237
*1331 FILLER_37_249
*1332 FILLER_37_261
*1333 FILLER_37_273
*1334 FILLER_37_279
*1335 FILLER_37_281
*1336 FILLER_37_293
*1337 FILLER_37_3
*1338 FILLER_37_34
*1339 FILLER_37_42
*1340 FILLER_37_50
*1341 FILLER_37_57
*1342 FILLER_37_75
*1343 FILLER_37_86
*1344 FILLER_38_104
*1345 FILLER_38_113
*1346 FILLER_38_123
*1347 FILLER_38_135
*1348 FILLER_38_139
*1349 FILLER_38_141
*1350 FILLER_38_153
*1351 FILLER_38_165
*1352 FILLER_38_177
*1353 FILLER_38_189
*1354 FILLER_38_195
*1355 FILLER_38_197
*1356 FILLER_38_209
*1357 FILLER_38_22
*1358 FILLER_38_221
*1359 FILLER_38_233
*1360 FILLER_38_245
*1361 FILLER_38_251
*1362 FILLER_38_253
*1363 FILLER_38_265
*1364 FILLER_38_277
*1365 FILLER_38_289
*1366 FILLER_38_29
*1367 FILLER_38_297
*1368 FILLER_38_3
*1369 FILLER_38_47
*1370 FILLER_38_58
*1371 FILLER_38_64
*1372 FILLER_38_82
*1373 FILLER_38_85
*1374 FILLER_39_102
*1375 FILLER_39_106
*1376 FILLER_39_113
*1377 FILLER_39_125
*1378 FILLER_39_137
*1379 FILLER_39_149
*1380 FILLER_39_161
*1381 FILLER_39_167
*1382 FILLER_39_169
*1383 FILLER_39_17
*1384 FILLER_39_181
*1385 FILLER_39_193
*1386 FILLER_39_205
*1387 FILLER_39_21
*1388 FILLER_39_217
*1389 FILLER_39_223
*1390 FILLER_39_225
*1391 FILLER_39_237
*1392 FILLER_39_249
*1393 FILLER_39_25
*1394 FILLER_39_261
*1395 FILLER_39_273
*1396 FILLER_39_279
*1397 FILLER_39_281
*1398 FILLER_39_29
*1399 FILLER_39_293
*1400 FILLER_39_3
*1401 FILLER_39_34
*1402 FILLER_39_46
*1403 FILLER_39_54
*1404 FILLER_39_57
*1405 FILLER_39_67
*1406 FILLER_39_7
*1407 FILLER_39_75
*1408 FILLER_39_94
*1409 FILLER_3_105
*1410 FILLER_3_111
*1411 FILLER_3_113
*1412 FILLER_3_125
*1413 FILLER_3_137
*1414 FILLER_3_149
*1415 FILLER_3_15
*1416 FILLER_3_161
*1417 FILLER_3_167
*1418 FILLER_3_169
*1419 FILLER_3_181
*1420 FILLER_3_193
*1421 FILLER_3_205
*1422 FILLER_3_217
*1423 FILLER_3_223
*1424 FILLER_3_225
*1425 FILLER_3_237
*1426 FILLER_3_249
*1427 FILLER_3_261
*1428 FILLER_3_27
*1429 FILLER_3_273
*1430 FILLER_3_279
*1431 FILLER_3_281
*1432 FILLER_3_293
*1433 FILLER_3_3
*1434 FILLER_3_39
*1435 FILLER_3_51
*1436 FILLER_3_55
*1437 FILLER_3_57
*1438 FILLER_3_69
*1439 FILLER_3_81
*1440 FILLER_3_93
*1441 FILLER_40_108
*1442 FILLER_40_120
*1443 FILLER_40_132
*1444 FILLER_40_141
*1445 FILLER_40_153
*1446 FILLER_40_165
*1447 FILLER_40_177
*1448 FILLER_40_189
*1449 FILLER_40_195
*1450 FILLER_40_197
*1451 FILLER_40_209
*1452 FILLER_40_22
*1453 FILLER_40_221
*1454 FILLER_40_233
*1455 FILLER_40_245
*1456 FILLER_40_251
*1457 FILLER_40_253
*1458 FILLER_40_265
*1459 FILLER_40_277
*1460 FILLER_40_289
*1461 FILLER_40_29
*1462 FILLER_40_297
*1463 FILLER_40_3
*1464 FILLER_40_38
*1465 FILLER_40_46
*1466 FILLER_40_64
*1467 FILLER_40_76
*1468 FILLER_40_82
*1469 FILLER_40_85
*1470 FILLER_40_91
*1471 FILLER_41_110
*1472 FILLER_41_113
*1473 FILLER_41_125
*1474 FILLER_41_137
*1475 FILLER_41_149
*1476 FILLER_41_161
*1477 FILLER_41_167
*1478 FILLER_41_169
*1479 FILLER_41_181
*1480 FILLER_41_193
*1481 FILLER_41_205
*1482 FILLER_41_217
*1483 FILLER_41_223
*1484 FILLER_41_225
*1485 FILLER_41_237
*1486 FILLER_41_249
*1487 FILLER_41_26
*1488 FILLER_41_261
*1489 FILLER_41_273
*1490 FILLER_41_279
*1491 FILLER_41_281
*1492 FILLER_41_293
*1493 FILLER_41_3
*1494 FILLER_41_47
*1495 FILLER_41_54
*1496 FILLER_41_57
*1497 FILLER_41_62
*1498 FILLER_41_74
*1499 FILLER_41_86
*1500 FILLER_41_98
*1501 FILLER_42_109
*1502 FILLER_42_121
*1503 FILLER_42_133
*1504 FILLER_42_139
*1505 FILLER_42_141
*1506 FILLER_42_153
*1507 FILLER_42_16
*1508 FILLER_42_165
*1509 FILLER_42_177
*1510 FILLER_42_189
*1511 FILLER_42_195
*1512 FILLER_42_197
*1513 FILLER_42_209
*1514 FILLER_42_221
*1515 FILLER_42_233
*1516 FILLER_42_245
*1517 FILLER_42_251
*1518 FILLER_42_253
*1519 FILLER_42_26
*1520 FILLER_42_265
*1521 FILLER_42_277
*1522 FILLER_42_289
*1523 FILLER_42_29
*1524 FILLER_42_297
*1525 FILLER_42_3
*1526 FILLER_42_35
*1527 FILLER_42_45
*1528 FILLER_42_57
*1529 FILLER_42_69
*1530 FILLER_42_8
*1531 FILLER_42_81
*1532 FILLER_42_85
*1533 FILLER_42_97
*1534 FILLER_43_105
*1535 FILLER_43_111
*1536 FILLER_43_113
*1537 FILLER_43_125
*1538 FILLER_43_137
*1539 FILLER_43_149
*1540 FILLER_43_16
*1541 FILLER_43_161
*1542 FILLER_43_167
*1543 FILLER_43_169
*1544 FILLER_43_181
*1545 FILLER_43_193
*1546 FILLER_43_205
*1547 FILLER_43_217
*1548 FILLER_43_223
*1549 FILLER_43_225
*1550 FILLER_43_23
*1551 FILLER_43_237
*1552 FILLER_43_249
*1553 FILLER_43_261
*1554 FILLER_43_273
*1555 FILLER_43_279
*1556 FILLER_43_281
*1557 FILLER_43_293
*1558 FILLER_43_3
*1559 FILLER_43_35
*1560 FILLER_43_47
*1561 FILLER_43_55
*1562 FILLER_43_57
*1563 FILLER_43_69
*1564 FILLER_43_81
*1565 FILLER_43_93
*1566 FILLER_44_109
*1567 FILLER_44_121
*1568 FILLER_44_133
*1569 FILLER_44_139
*1570 FILLER_44_141
*1571 FILLER_44_15
*1572 FILLER_44_153
*1573 FILLER_44_165
*1574 FILLER_44_177
*1575 FILLER_44_189
*1576 FILLER_44_195
*1577 FILLER_44_197
*1578 FILLER_44_209
*1579 FILLER_44_221
*1580 FILLER_44_233
*1581 FILLER_44_245
*1582 FILLER_44_251
*1583 FILLER_44_253
*1584 FILLER_44_265
*1585 FILLER_44_27
*1586 FILLER_44_277
*1587 FILLER_44_289
*1588 FILLER_44_29
*1589 FILLER_44_297
*1590 FILLER_44_3
*1591 FILLER_44_41
*1592 FILLER_44_53
*1593 FILLER_44_65
*1594 FILLER_44_77
*1595 FILLER_44_83
*1596 FILLER_44_85
*1597 FILLER_44_97
*1598 FILLER_45_105
*1599 FILLER_45_111
*1600 FILLER_45_113
*1601 FILLER_45_125
*1602 FILLER_45_137
*1603 FILLER_45_149
*1604 FILLER_45_15
*1605 FILLER_45_161
*1606 FILLER_45_167
*1607 FILLER_45_169
*1608 FILLER_45_181
*1609 FILLER_45_193
*1610 FILLER_45_205
*1611 FILLER_45_217
*1612 FILLER_45_223
*1613 FILLER_45_225
*1614 FILLER_45_237
*1615 FILLER_45_249
*1616 FILLER_45_261
*1617 FILLER_45_27
*1618 FILLER_45_273
*1619 FILLER_45_279
*1620 FILLER_45_281
*1621 FILLER_45_293
*1622 FILLER_45_3
*1623 FILLER_45_39
*1624 FILLER_45_51
*1625 FILLER_45_55
*1626 FILLER_45_57
*1627 FILLER_45_69
*1628 FILLER_45_81
*1629 FILLER_45_93
*1630 FILLER_46_109
*1631 FILLER_46_121
*1632 FILLER_46_133
*1633 FILLER_46_139
*1634 FILLER_46_141
*1635 FILLER_46_15
*1636 FILLER_46_153
*1637 FILLER_46_165
*1638 FILLER_46_177
*1639 FILLER_46_189
*1640 FILLER_46_195
*1641 FILLER_46_197
*1642 FILLER_46_209
*1643 FILLER_46_221
*1644 FILLER_46_233
*1645 FILLER_46_245
*1646 FILLER_46_251
*1647 FILLER_46_253
*1648 FILLER_46_265
*1649 FILLER_46_27
*1650 FILLER_46_277
*1651 FILLER_46_289
*1652 FILLER_46_29
*1653 FILLER_46_297
*1654 FILLER_46_3
*1655 FILLER_46_41
*1656 FILLER_46_53
*1657 FILLER_46_65
*1658 FILLER_46_77
*1659 FILLER_46_83
*1660 FILLER_46_85
*1661 FILLER_46_97
*1662 FILLER_47_105
*1663 FILLER_47_111
*1664 FILLER_47_113
*1665 FILLER_47_125
*1666 FILLER_47_137
*1667 FILLER_47_149
*1668 FILLER_47_15
*1669 FILLER_47_161
*1670 FILLER_47_167
*1671 FILLER_47_169
*1672 FILLER_47_181
*1673 FILLER_47_193
*1674 FILLER_47_205
*1675 FILLER_47_217
*1676 FILLER_47_223
*1677 FILLER_47_225
*1678 FILLER_47_237