*SPEF "ieee 1481-1999"
*DESIGN "user_module_360745091952588801"
*DATE "11:11:11 Fri 11 11, 1111"
*VENDOR "OpenRCX"
*PROGRAM "Parallel Extraction"
*VERSION "1.0"
*DESIGN_FLOW "NAME_SCOPE LOCAL" "PIN_CAP NONE"
*DIVIDER /
*DELIMITER :
*BUS_DELIMITER []
*T_UNIT 1 NS
*C_UNIT 1 PF
*R_UNIT 1 OHM
*L_UNIT 1 HENRY

*NAME_MAP
*1 io_in[0]
*2 io_in[1]
*3 io_in[2]
*4 io_in[3]
*5 io_in[4]
*6 io_in[5]
*7 io_in[6]
*8 io_in[7]
*9 io_out[0]
*10 io_out[1]
*11 io_out[2]
*12 io_out[3]
*13 net8
*14 net9
*15 net10
*16 io_out[7]
*19 _000_
*20 _001_
*21 _002_
*22 _003_
*23 _004_
*24 _005_
*25 _006_
*26 _007_
*27 _008_
*28 _009_
*29 _010_
*30 _011_
*31 _012_
*32 _013_
*33 _014_
*34 _015_
*35 _016_
*36 _017_
*37 _018_
*38 _019_
*39 _020_
*40 _021_
*41 _022_
*42 _023_
*43 _024_
*44 _025_
*45 _026_
*46 _027_
*47 _028_
*48 _029_
*49 _030_
*50 _031_
*51 _032_
*52 _033_
*53 _034_
*54 _035_
*55 _036_
*56 _037_
*57 _038_
*58 _039_
*59 _040_
*60 _041_
*61 _042_
*62 _043_
*63 _044_
*64 _045_
*65 _046_
*66 _047_
*67 _048_
*68 _049_
*69 _050_
*70 _051_
*71 _052_
*72 _053_
*73 _054_
*74 _055_
*75 _056_
*76 _057_
*77 and2\.a
*78 and4\.a
*79 and6\.a
*80 and8\.a
*81 clknet_0_io_in[0]
*82 clknet_1_0__leaf_io_in[0]
*83 clknet_1_1__leaf_io_in[0]
*84 flop2\.d
*85 flop3\.d
*86 flop4\.q
*87 flop5\.d
*88 flop6\.d
*89 net1
*90 net2
*91 net3
*92 net4
*93 net5
*94 net6
*95 net7
*96 FILLER_0_109
*97 FILLER_0_113
*98 FILLER_0_125
*99 FILLER_0_137
*100 FILLER_0_141
*101 FILLER_0_153
*102 FILLER_0_165
*103 FILLER_0_169
*104 FILLER_0_181
*105 FILLER_0_193
*106 FILLER_0_197
*107 FILLER_0_209
*108 FILLER_0_221
*109 FILLER_0_225
*110 FILLER_0_237
*111 FILLER_0_249
*112 FILLER_0_25
*113 FILLER_0_253
*114 FILLER_0_265
*115 FILLER_0_277
*116 FILLER_0_281
*117 FILLER_0_29
*118 FILLER_0_293
*119 FILLER_0_3
*120 FILLER_0_47
*121 FILLER_0_55
*122 FILLER_0_57
*123 FILLER_0_69
*124 FILLER_0_81
*125 FILLER_0_85
*126 FILLER_0_97
*127 FILLER_10_109
*128 FILLER_10_121
*129 FILLER_10_133
*130 FILLER_10_139
*131 FILLER_10_141
*132 FILLER_10_15
*133 FILLER_10_153
*134 FILLER_10_165
*135 FILLER_10_177
*136 FILLER_10_189
*137 FILLER_10_195
*138 FILLER_10_197
*139 FILLER_10_209
*140 FILLER_10_221
*141 FILLER_10_233
*142 FILLER_10_245
*143 FILLER_10_251
*144 FILLER_10_253
*145 FILLER_10_265
*146 FILLER_10_27
*147 FILLER_10_277
*148 FILLER_10_289
*149 FILLER_10_29
*150 FILLER_10_297
*151 FILLER_10_3
*152 FILLER_10_41
*153 FILLER_10_53
*154 FILLER_10_65
*155 FILLER_10_77
*156 FILLER_10_83
*157 FILLER_10_85
*158 FILLER_10_97
*159 FILLER_11_105
*160 FILLER_11_111
*161 FILLER_11_113
*162 FILLER_11_125
*163 FILLER_11_137
*164 FILLER_11_149
*165 FILLER_11_161
*166 FILLER_11_167
*167 FILLER_11_169
*168 FILLER_11_17
*169 FILLER_11_181
*170 FILLER_11_193
*171 FILLER_11_205
*172 FILLER_11_217
*173 FILLER_11_223
*174 FILLER_11_225
*175 FILLER_11_237
*176 FILLER_11_249
*177 FILLER_11_261
*178 FILLER_11_273
*179 FILLER_11_279
*180 FILLER_11_281
*181 FILLER_11_29
*182 FILLER_11_293
*183 FILLER_11_3
*184 FILLER_11_41
*185 FILLER_11_53
*186 FILLER_11_57
*187 FILLER_11_69
*188 FILLER_11_81
*189 FILLER_11_9
*190 FILLER_11_93
*191 FILLER_12_109
*192 FILLER_12_12
*193 FILLER_12_121
*194 FILLER_12_133
*195 FILLER_12_139
*196 FILLER_12_141
*197 FILLER_12_153
*198 FILLER_12_165
*199 FILLER_12_177
*200 FILLER_12_189
*201 FILLER_12_195
*202 FILLER_12_197
*203 FILLER_12_209
*204 FILLER_12_221
*205 FILLER_12_233
*206 FILLER_12_24
*207 FILLER_12_245
*208 FILLER_12_251
*209 FILLER_12_253
*210 FILLER_12_265
*211 FILLER_12_277
*212 FILLER_12_289
*213 FILLER_12_29
*214 FILLER_12_297
*215 FILLER_12_3
*216 FILLER_12_41
*217 FILLER_12_53
*218 FILLER_12_65
*219 FILLER_12_77
*220 FILLER_12_83
*221 FILLER_12_85
*222 FILLER_12_97
*223 FILLER_13_105
*224 FILLER_13_111
*225 FILLER_13_113
*226 FILLER_13_125
*227 FILLER_13_137
*228 FILLER_13_149
*229 FILLER_13_15
*230 FILLER_13_161
*231 FILLER_13_167
*232 FILLER_13_169
*233 FILLER_13_181
*234 FILLER_13_193
*235 FILLER_13_205
*236 FILLER_13_217
*237 FILLER_13_223
*238 FILLER_13_225
*239 FILLER_13_237
*240 FILLER_13_249
*241 FILLER_13_261
*242 FILLER_13_27
*243 FILLER_13_273
*244 FILLER_13_279
*245 FILLER_13_281
*246 FILLER_13_293
*247 FILLER_13_3
*248 FILLER_13_39
*249 FILLER_13_51
*250 FILLER_13_55
*251 FILLER_13_57
*252 FILLER_13_69
*253 FILLER_13_81
*254 FILLER_13_93
*255 FILLER_14_109
*256 FILLER_14_121
*257 FILLER_14_133
*258 FILLER_14_139
*259 FILLER_14_141
*260 FILLER_14_153
*261 FILLER_14_16
*262 FILLER_14_165
*263 FILLER_14_177
*264 FILLER_14_189
*265 FILLER_14_195
*266 FILLER_14_197
*267 FILLER_14_209
*268 FILLER_14_221
*269 FILLER_14_233
*270 FILLER_14_245
*271 FILLER_14_251
*272 FILLER_14_253
*273 FILLER_14_265
*274 FILLER_14_277
*275 FILLER_14_289
*276 FILLER_14_29
*277 FILLER_14_297
*278 FILLER_14_3
*279 FILLER_14_41
*280 FILLER_14_53
*281 FILLER_14_65
*282 FILLER_14_77
*283 FILLER_14_83
*284 FILLER_14_85
*285 FILLER_14_97
*286 FILLER_15_105
*287 FILLER_15_111
*288 FILLER_15_113
*289 FILLER_15_125
*290 FILLER_15_137
*291 FILLER_15_149
*292 FILLER_15_16
*293 FILLER_15_161
*294 FILLER_15_167
*295 FILLER_15_169
*296 FILLER_15_181
*297 FILLER_15_193
*298 FILLER_15_205
*299 FILLER_15_217
*300 FILLER_15_223
*301 FILLER_15_225
*302 FILLER_15_237
*303 FILLER_15_249
*304 FILLER_15_261
*305 FILLER_15_273
*306 FILLER_15_279
*307 FILLER_15_28
*308 FILLER_15_281
*309 FILLER_15_293
*310 FILLER_15_3
*311 FILLER_15_36
*312 FILLER_15_48
*313 FILLER_15_57
*314 FILLER_15_69
*315 FILLER_15_81
*316 FILLER_15_93
*317 FILLER_16_109
*318 FILLER_16_12
*319 FILLER_16_121
*320 FILLER_16_133
*321 FILLER_16_139
*322 FILLER_16_141
*323 FILLER_16_153
*324 FILLER_16_165
*325 FILLER_16_177
*326 FILLER_16_189
*327 FILLER_16_19
*328 FILLER_16_195
*329 FILLER_16_197
*330 FILLER_16_209
*331 FILLER_16_221
*332 FILLER_16_233
*333 FILLER_16_245
*334 FILLER_16_251
*335 FILLER_16_253
*336 FILLER_16_265
*337 FILLER_16_27
*338 FILLER_16_277
*339 FILLER_16_289
*340 FILLER_16_29
*341 FILLER_16_297
*342 FILLER_16_3
*343 FILLER_16_38
*344 FILLER_16_50
*345 FILLER_16_62
*346 FILLER_16_74
*347 FILLER_16_82
*348 FILLER_16_85
*349 FILLER_16_97
*350 FILLER_17_105
*351 FILLER_17_111
*352 FILLER_17_113
*353 FILLER_17_125
*354 FILLER_17_137
*355 FILLER_17_149
*356 FILLER_17_15
*357 FILLER_17_161
*358 FILLER_17_167
*359 FILLER_17_169
*360 FILLER_17_181
*361 FILLER_17_193
*362 FILLER_17_205
*363 FILLER_17_217
*364 FILLER_17_22
*365 FILLER_17_223
*366 FILLER_17_225
*367 FILLER_17_237
*368 FILLER_17_249
*369 FILLER_17_261
*370 FILLER_17_273
*371 FILLER_17_279
*372 FILLER_17_281
*373 FILLER_17_293
*374 FILLER_17_3
*375 FILLER_17_32
*376 FILLER_17_40
*377 FILLER_17_48
*378 FILLER_17_57
*379 FILLER_17_69
*380 FILLER_17_81
*381 FILLER_17_93
*382 FILLER_18_109
*383 FILLER_18_11
*384 FILLER_18_121
*385 FILLER_18_133
*386 FILLER_18_139
*387 FILLER_18_141
*388 FILLER_18_153
*389 FILLER_18_165
*390 FILLER_18_177
*391 FILLER_18_189
*392 FILLER_18_195
*393 FILLER_18_197
*394 FILLER_18_209
*395 FILLER_18_22
*396 FILLER_18_221
*397 FILLER_18_233
*398 FILLER_18_245
*399 FILLER_18_251
*400 FILLER_18_253
*401 FILLER_18_265
*402 FILLER_18_277
*403 FILLER_18_289
*404 FILLER_18_29
*405 FILLER_18_297
*406 FILLER_18_3
*407 FILLER_18_35
*408 FILLER_18_44
*409 FILLER_18_56
*410 FILLER_18_68
*411 FILLER_18_7
*412 FILLER_18_80
*413 FILLER_18_85
*414 FILLER_18_97
*415 FILLER_19_103
*416 FILLER_19_111
*417 FILLER_19_113
*418 FILLER_19_12
*419 FILLER_19_125
*420 FILLER_19_137
*421 FILLER_19_149
*422 FILLER_19_161
*423 FILLER_19_167
*424 FILLER_19_169
*425 FILLER_19_181
*426 FILLER_19_193
*427 FILLER_19_20
*428 FILLER_19_205
*429 FILLER_19_217
*430 FILLER_19_223
*431 FILLER_19_225
*432 FILLER_19_237
*433 FILLER_19_249
*434 FILLER_19_261
*435 FILLER_19_273
*436 FILLER_19_279
*437 FILLER_19_281
*438 FILLER_19_293
*439 FILLER_19_3
*440 FILLER_19_30
*441 FILLER_19_42
*442 FILLER_19_54
*443 FILLER_19_57
*444 FILLER_19_67
*445 FILLER_19_79
*446 FILLER_19_8
*447 FILLER_19_91
*448 FILLER_1_105
*449 FILLER_1_111
*450 FILLER_1_113
*451 FILLER_1_125
*452 FILLER_1_137
*453 FILLER_1_149
*454 FILLER_1_161
*455 FILLER_1_167
*456 FILLER_1_169
*457 FILLER_1_181
*458 FILLER_1_193
*459 FILLER_1_205
*460 FILLER_1_21
*461 FILLER_1_217
*462 FILLER_1_223
*463 FILLER_1_225
*464 FILLER_1_237
*465 FILLER_1_249
*466 FILLER_1_261
*467 FILLER_1_273
*468 FILLER_1_279
*469 FILLER_1_281
*470 FILLER_1_293
*471 FILLER_1_3
*472 FILLER_1_41
*473 FILLER_1_53
*474 FILLER_1_57
*475 FILLER_1_69
*476 FILLER_1_81
*477 FILLER_1_93
*478 FILLER_20_109
*479 FILLER_20_12
*480 FILLER_20_121
*481 FILLER_20_133
*482 FILLER_20_139
*483 FILLER_20_141
*484 FILLER_20_153
*485 FILLER_20_165
*486 FILLER_20_177
*487 FILLER_20_189
*488 FILLER_20_195
*489 FILLER_20_197
*490 FILLER_20_20
*491 FILLER_20_209
*492 FILLER_20_221
*493 FILLER_20_233
*494 FILLER_20_245
*495 FILLER_20_251
*496 FILLER_20_253
*497 FILLER_20_26
*498 FILLER_20_265
*499 FILLER_20_277
*500 FILLER_20_289
*501 FILLER_20_29
*502 FILLER_20_297
*503 FILLER_20_3
*504 FILLER_20_38
*505 FILLER_20_45
*506 FILLER_20_57
*507 FILLER_20_69
*508 FILLER_20_81
*509 FILLER_20_85
*510 FILLER_20_97
*511 FILLER_21_105
*512 FILLER_21_111
*513 FILLER_21_113
*514 FILLER_21_12
*515 FILLER_21_125
*516 FILLER_21_137
*517 FILLER_21_149
*518 FILLER_21_161
*519 FILLER_21_167
*520 FILLER_21_169
*521 FILLER_21_181
*522 FILLER_21_19
*523 FILLER_21_193
*524 FILLER_21_205
*525 FILLER_21_217
*526 FILLER_21_223
*527 FILLER_21_225
*528 FILLER_21_237
*529 FILLER_21_249
*530 FILLER_21_261
*531 FILLER_21_27
*532 FILLER_21_273
*533 FILLER_21_279
*534 FILLER_21_281
*535 FILLER_21_293
*536 FILLER_21_3
*537 FILLER_21_37
*538 FILLER_21_49
*539 FILLER_21_55
*540 FILLER_21_57
*541 FILLER_21_69
*542 FILLER_21_81
*543 FILLER_21_93
*544 FILLER_22_109
*545 FILLER_22_121
*546 FILLER_22_133
*547 FILLER_22_139
*548 FILLER_22_141
*549 FILLER_22_15
*550 FILLER_22_153
*551 FILLER_22_165
*552 FILLER_22_177
*553 FILLER_22_189
*554 FILLER_22_19
*555 FILLER_22_195
*556 FILLER_22_197
*557 FILLER_22_209
*558 FILLER_22_221
*559 FILLER_22_233
*560 FILLER_22_245
*561 FILLER_22_251
*562 FILLER_22_253
*563 FILLER_22_26
*564 FILLER_22_265
*565 FILLER_22_277
*566 FILLER_22_289
*567 FILLER_22_29
*568 FILLER_22_297
*569 FILLER_22_3
*570 FILLER_22_41
*571 FILLER_22_53
*572 FILLER_22_65
*573 FILLER_22_77
*574 FILLER_22_83
*575 FILLER_22_85
*576 FILLER_22_97
*577 FILLER_23_105
*578 FILLER_23_111
*579 FILLER_23_113
*580 FILLER_23_125
*581 FILLER_23_137
*582 FILLER_23_149
*583 FILLER_23_161
*584 FILLER_23_167
*585 FILLER_23_169
*586 FILLER_23_17
*587 FILLER_23_181
*588 FILLER_23_193
*589 FILLER_23_205
*590 FILLER_23_217
*591 FILLER_23_223
*592 FILLER_23_225
*593 FILLER_23_237
*594 FILLER_23_249
*595 FILLER_23_261
*596 FILLER_23_273
*597 FILLER_23_279
*598 FILLER_23_281
*599 FILLER_23_293
*600 FILLER_23_3
*601 FILLER_23_30
*602 FILLER_23_39
*603 FILLER_23_50
*604 FILLER_23_57
*605 FILLER_23_69
*606 FILLER_23_8
*607 FILLER_23_81
*608 FILLER_23_93
*609 FILLER_24_109
*610 FILLER_24_121
*611 FILLER_24_133
*612 FILLER_24_139
*613 FILLER_24_14
*614 FILLER_24_141
*615 FILLER_24_153
*616 FILLER_24_165
*617 FILLER_24_177
*618 FILLER_24_18
*619 FILLER_24_189
*620 FILLER_24_195
*621 FILLER_24_197
*622 FILLER_24_209
*623 FILLER_24_221
*624 FILLER_24_23
*625 FILLER_24_233
*626 FILLER_24_245
*627 FILLER_24_251
*628 FILLER_24_253
*629 FILLER_24_265
*630 FILLER_24_27
*631 FILLER_24_277
*632 FILLER_24_289
*633 FILLER_24_29
*634 FILLER_24_297
*635 FILLER_24_3
*636 FILLER_24_34
*637 FILLER_24_46
*638 FILLER_24_66
*639 FILLER_24_78
*640 FILLER_24_85
*641 FILLER_24_97
*642 FILLER_25_105
*643 FILLER_25_111
*644 FILLER_25_113
*645 FILLER_25_125
*646 FILLER_25_137
*647 FILLER_25_14
*648 FILLER_25_149
*649 FILLER_25_161
*650 FILLER_25_167
*651 FILLER_25_169
*652 FILLER_25_181
*653 FILLER_25_193
*654 FILLER_25_205
*655 FILLER_25_217
*656 FILLER_25_223
*657 FILLER_25_225
*658 FILLER_25_23
*659 FILLER_25_237
*660 FILLER_25_249
*661 FILLER_25_261
*662 FILLER_25_273
*663 FILLER_25_279
*664 FILLER_25_281
*665 FILLER_25_293
*666 FILLER_25_3
*667 FILLER_25_30
*668 FILLER_25_38
*669 FILLER_25_44
*670 FILLER_25_57
*671 FILLER_25_69
*672 FILLER_25_81
*673 FILLER_25_93
*674 FILLER_26_109
*675 FILLER_26_121
*676 FILLER_26_13
*677 FILLER_26_133
*678 FILLER_26_139
*679 FILLER_26_141
*680 FILLER_26_153
*681 FILLER_26_165
*682 FILLER_26_177
*683 FILLER_26_18
*684 FILLER_26_189
*685 FILLER_26_195
*686 FILLER_26_197
*687 FILLER_26_209
*688 FILLER_26_221
*689 FILLER_26_233
*690 FILLER_26_245
*691 FILLER_26_25
*692 FILLER_26_251
*693 FILLER_26_253
*694 FILLER_26_265
*695 FILLER_26_277
*696 FILLER_26_289
*697 FILLER_26_29
*698 FILLER_26_297
*699 FILLER_26_3
*700 FILLER_26_41
*701 FILLER_26_56
*702 FILLER_26_68
*703 FILLER_26_80
*704 FILLER_26_85
*705 FILLER_26_9
*706 FILLER_26_97
*707 FILLER_27_105
*708 FILLER_27_111
*709 FILLER_27_113
*710 FILLER_27_12
*711 FILLER_27_125
*712 FILLER_27_137
*713 FILLER_27_149
*714 FILLER_27_161
*715 FILLER_27_167
*716 FILLER_27_169
*717 FILLER_27_181
*718 FILLER_27_193
*719 FILLER_27_20
*720 FILLER_27_205
*721 FILLER_27_217
*722 FILLER_27_223
*723 FILLER_27_225
*724 FILLER_27_237
*725 FILLER_27_249
*726 FILLER_27_261
*727 FILLER_27_273
*728 FILLER_27_279
*729 FILLER_27_281
*730 FILLER_27_29
*731 FILLER_27_293
*732 FILLER_27_3
*733 FILLER_27_38
*734 FILLER_27_50
*735 FILLER_27_57
*736 FILLER_27_69
*737 FILLER_27_81
*738 FILLER_27_93
*739 FILLER_28_109
*740 FILLER_28_121
*741 FILLER_28_133
*742 FILLER_28_139
*743 FILLER_28_141
*744 FILLER_28_153
*745 FILLER_28_165
*746 FILLER_28_177
*747 FILLER_28_189
*748 FILLER_28_195
*749 FILLER_28_197
*750 FILLER_28_20
*751 FILLER_28_209
*752 FILLER_28_221
*753 FILLER_28_233
*754 FILLER_28_245
*755 FILLER_28_251
*756 FILLER_28_253
*757 FILLER_28_265
*758 FILLER_28_277
*759 FILLER_28_289
*760 FILLER_28_29
*761 FILLER_28_297
*762 FILLER_28_3
*763 FILLER_28_41
*764 FILLER_28_50
*765 FILLER_28_66
*766 FILLER_28_78
*767 FILLER_28_8
*768 FILLER_28_85
*769 FILLER_28_97
*770 FILLER_29_105
*771 FILLER_29_111
*772 FILLER_29_113
*773 FILLER_29_12
*774 FILLER_29_125
*775 FILLER_29_137
*776 FILLER_29_149
*777 FILLER_29_161
*778 FILLER_29_167
*779 FILLER_29_169
*780 FILLER_29_181
*781 FILLER_29_193
*782 FILLER_29_20
*783 FILLER_29_205
*784 FILLER_29_217
*785 FILLER_29_223
*786 FILLER_29_225
*787 FILLER_29_237
*788 FILLER_29_249
*789 FILLER_29_261
*790 FILLER_29_273
*791 FILLER_29_279
*792 FILLER_29_28
*793 FILLER_29_281
*794 FILLER_29_293
*795 FILLER_29_3
*796 FILLER_29_35
*797 FILLER_29_47
*798 FILLER_29_55
*799 FILLER_29_57
*800 FILLER_29_69
*801 FILLER_29_81
*802 FILLER_29_93
*803 FILLER_2_109
*804 FILLER_2_121
*805 FILLER_2_133
*806 FILLER_2_139
*807 FILLER_2_141
*808 FILLER_2_153
*809 FILLER_2_165
*810 FILLER_2_177
*811 FILLER_2_189
*812 FILLER_2_195
*813 FILLER_2_197
*814 FILLER_2_209
*815 FILLER_2_221
*816 FILLER_2_233
*817 FILLER_2_245
*818 FILLER_2_251
*819 FILLER_2_253
*820 FILLER_2_26
*821 FILLER_2_265
*822 FILLER_2_277
*823 FILLER_2_289
*824 FILLER_2_29
*825 FILLER_2_297
*826 FILLER_2_3
*827 FILLER_2_47
*828 FILLER_2_59
*829 FILLER_2_71
*830 FILLER_2_83
*831 FILLER_2_85
*832 FILLER_2_97
*833 FILLER_30_109
*834 FILLER_30_121
*835 FILLER_30_133
*836 FILLER_30_139
*837 FILLER_30_141
*838 FILLER_30_15
*839 FILLER_30_153
*840 FILLER_30_165
*841 FILLER_30_177
*842 FILLER_30_189
*843 FILLER_30_195
*844 FILLER_30_197
*845 FILLER_30_209
*846 FILLER_30_221
*847 FILLER_30_233
*848 FILLER_30_245
*849 FILLER_30_251
*850 FILLER_30_253
*851 FILLER_30_265
*852 FILLER_30_27
*853 FILLER_30_277
*854 FILLER_30_289
*855 FILLER_30_29
*856 FILLER_30_297
*857 FILLER_30_3
*858 FILLER_30_37
*859 FILLER_30_44
*860 FILLER_30_56
*861 FILLER_30_68
*862 FILLER_30_80
*863 FILLER_30_85
*864 FILLER_30_97
*865 FILLER_31_105
*866 FILLER_31_111
*867 FILLER_31_113
*868 FILLER_31_125
*869 FILLER_31_13
*870 FILLER_31_137
*871 FILLER_31_149
*872 FILLER_31_161
*873 FILLER_31_167
*874 FILLER_31_169
*875 FILLER_31_181
*876 FILLER_31_193
*877 FILLER_31_205
*878 FILLER_31_217
*879 FILLER_31_223
*880 FILLER_31_225
*881 FILLER_31_237
*882 FILLER_31_249
*883 FILLER_31_261
*884 FILLER_31_273
*885 FILLER_31_279
*886 FILLER_31_281
*887 FILLER_31_293
*888 FILLER_31_3
*889 FILLER_31_30
*890 FILLER_31_37
*891 FILLER_31_49
*892 FILLER_31_55
*893 FILLER_31_57
*894 FILLER_31_69
*895 FILLER_31_81
*896 FILLER_31_93
*897 FILLER_32_109
*898 FILLER_32_12
*899 FILLER_32_121
*900 FILLER_32_133
*901 FILLER_32_139
*902 FILLER_32_141
*903 FILLER_32_153
*904 FILLER_32_165
*905 FILLER_32_177
*906 FILLER_32_189
*907 FILLER_32_195
*908 FILLER_32_197
*909 FILLER_32_20
*910 FILLER_32_209
*911 FILLER_32_221
*912 FILLER_32_233
*913 FILLER_32_245
*914 FILLER_32_251
*915 FILLER_32_253
*916 FILLER_32_26
*917 FILLER_32_265
*918 FILLER_32_277
*919 FILLER_32_289
*920 FILLER_32_29
*921 FILLER_32_297
*922 FILLER_32_3
*923 FILLER_32_35
*924 FILLER_32_41
*925 FILLER_32_52
*926 FILLER_32_64
*927 FILLER_32_76
*928 FILLER_32_85
*929 FILLER_32_97
*930 FILLER_33_10
*931 FILLER_33_105
*932 FILLER_33_111
*933 FILLER_33_113
*934 FILLER_33_125
*935 FILLER_33_137
*936 FILLER_33_149
*937 FILLER_33_161
*938 FILLER_33_167
*939 FILLER_33_169
*940 FILLER_33_181
*941 FILLER_33_193
*942 FILLER_33_205
*943 FILLER_33_217
*944 FILLER_33_22
*945 FILLER_33_223
*946 FILLER_33_225
*947 FILLER_33_237
*948 FILLER_33_249
*949 FILLER_33_261
*950 FILLER_33_273
*951 FILLER_33_279
*952 FILLER_33_281
*953 FILLER_33_293
*954 FILLER_33_3
*955 FILLER_33_34
*956 FILLER_33_46
*957 FILLER_33_54
*958 FILLER_33_57
*959 FILLER_33_69
*960 FILLER_33_81
*961 FILLER_33_93
*962 FILLER_34_109
*963 FILLER_34_121
*964 FILLER_34_133
*965 FILLER_34_139
*966 FILLER_34_141
*967 FILLER_34_15
*968 FILLER_34_153
*969 FILLER_34_165
*970 FILLER_34_177
*971 FILLER_34_189
*972 FILLER_34_195
*973 FILLER_34_197
*974 FILLER_34_209
*975 FILLER_34_221
*976 FILLER_34_233
*977 FILLER_34_245
*978 FILLER_34_251
*979 FILLER_34_253
*980 FILLER_34_265
*981 FILLER_34_27
*982 FILLER_34_277
*983 FILLER_34_289
*984 FILLER_34_29
*985 FILLER_34_297
*986 FILLER_34_3
*987 FILLER_34_41
*988 FILLER_34_53
*989 FILLER_34_65
*990 FILLER_34_77
*991 FILLER_34_83
*992 FILLER_34_85
*993 FILLER_34_97
*994 FILLER_35_105
*995 FILLER_35_111
*996 FILLER_35_113
*997 FILLER_35_125
*998 FILLER_35_137
*999 FILLER_35_149
*1000 FILLER_35_15
*1001 FILLER_35_161
*1002 FILLER_35_167
*1003 FILLER_35_169
*1004 FILLER_35_181
*1005 FILLER_35_193
*1006 FILLER_35_205
*1007 FILLER_35_217
*1008 FILLER_35_223
*1009 FILLER_35_225
*1010 FILLER_35_237
*1011 FILLER_35_249
*1012 FILLER_35_261
*1013 FILLER_35_27
*1014 FILLER_35_273
*1015 FILLER_35_279
*1016 FILLER_35_281
*1017 FILLER_35_293
*1018 FILLER_35_3
*1019 FILLER_35_39
*1020 FILLER_35_51
*1021 FILLER_35_55
*1022 FILLER_35_57
*1023 FILLER_35_69
*1024 FILLER_35_81
*1025 FILLER_35_93
*1026 FILLER_36_109
*1027 FILLER_36_121
*1028 FILLER_36_133
*1029 FILLER_36_139
*1030 FILLER_36_141
*1031 FILLER_36_15
*1032 FILLER_36_153
*1033 FILLER_36_165
*1034 FILLER_36_177
*1035 FILLER_36_189
*1036 FILLER_36_195
*1037 FILLER_36_197
*1038 FILLER_36_209
*1039 FILLER_36_221
*1040 FILLER_36_233
*1041 FILLER_36_245
*1042 FILLER_36_251
*1043 FILLER_36_253
*1044 FILLER_36_265
*1045 FILLER_36_27
*1046 FILLER_36_277
*1047 FILLER_36_289
*1048 FILLER_36_29
*1049 FILLER_36_297
*1050 FILLER_36_3
*1051 FILLER_36_41
*1052 FILLER_36_53
*1053 FILLER_36_65
*1054 FILLER_36_77
*1055 FILLER_36_83
*1056 FILLER_36_85
*1057 FILLER_36_97
*1058 FILLER_37_105
*1059 FILLER_37_111
*1060 FILLER_37_113
*1061 FILLER_37_125
*1062 FILLER_37_137
*1063 FILLER_37_149
*1064 FILLER_37_161
*1065 FILLER_37_167
*1066 FILLER_37_169
*1067 FILLER_37_181
*1068 FILLER_37_193
*1069 FILLER_37_205
*1070 FILLER_37_21
*1071 FILLER_37_217
*1072 FILLER_37_223
*1073 FILLER_37_225
*1074 FILLER_37_237
*1075 FILLER_37_249
*1076 FILLER_37_261
*1077 FILLER_37_273
*1078 FILLER_37_279
*1079 FILLER_37_281
*1080 FILLER_37_293
*1081 FILLER_37_3
*1082 FILLER_37_33
*1083 FILLER_37_45
*1084 FILLER_37_53
*1085 FILLER_37_57
*1086 FILLER_37_69
*1087 FILLER_37_81
*1088 FILLER_37_9
*1089 FILLER_37_93
*1090 FILLER_38_109
*1091 FILLER_38_11
*1092 FILLER_38_121
*1093 FILLER_38_133
*1094 FILLER_38_139
*1095 FILLER_38_141
*1096 FILLER_38_153
*1097 FILLER_38_165
*1098 FILLER_38_177
*1099 FILLER_38_189
*1100 FILLER_38_195
*1101 FILLER_38_197
*1102 FILLER_38_209
*1103 FILLER_38_221
*1104 FILLER_38_23
*1105 FILLER_38_233
*1106 FILLER_38_245
*1107 FILLER_38_251
*1108 FILLER_38_253
*1109 FILLER_38_265
*1110 FILLER_38_27
*1111 FILLER_38_277
*1112 FILLER_38_289
*1113 FILLER_38_29
*1114 FILLER_38_297
*1115 FILLER_38_3
*1116 FILLER_38_41
*1117 FILLER_38_53
*1118 FILLER_38_65
*1119 FILLER_38_77
*1120 FILLER_38_83
*1121 FILLER_38_85
*1122 FILLER_38_97
*1123 FILLER_39_105
*1124 FILLER_39_111
*1125 FILLER_39_113
*1126 FILLER_39_125
*1127 FILLER_39_137
*1128 FILLER_39_149
*1129 FILLER_39_15
*1130 FILLER_39_161
*1131 FILLER_39_167
*1132 FILLER_39_169
*1133 FILLER_39_181
*1134 FILLER_39_193
*1135 FILLER_39_205
*1136 FILLER_39_217
*1137 FILLER_39_223
*1138 FILLER_39_225
*1139 FILLER_39_237
*1140 FILLER_39_249
*1141 FILLER_39_261
*1142 FILLER_39_27
*1143 FILLER_39_273
*1144 FILLER_39_279
*1145 FILLER_39_281
*1146 FILLER_39_293
*1147 FILLER_39_3
*1148 FILLER_39_39
*1149 FILLER_39_51
*1150 FILLER_39_55
*1151 FILLER_39_57
*1152 FILLER_39_69
*1153 FILLER_39_81
*1154 FILLER_39_93
*1155 FILLER_3_105
*1156 FILLER_3_111
*1157 FILLER_3_113
*1158 FILLER_3_125
*1159 FILLER_3_137
*1160 FILLER_3_149
*1161 FILLER_3_161
*1162 FILLER_3_167
*1163 FILLER_3_169
*1164 FILLER_3_181
*1165 FILLER_3_193
*1166 FILLER_3_205
*1167 FILLER_3_217
*1168 FILLER_3_223
*1169 FILLER_3_225
*1170 FILLER_3_237
*1171 FILLER_3_249
*1172 FILLER_3_25
*1173 FILLER_3_261
*1174 FILLER_3_273
*1175 FILLER_3_279
*1176 FILLER_3_281
*1177 FILLER_3_293
*1178 FILLER_3_3
*1179 FILLER_3_37
*1180 FILLER_3_49
*1181 FILLER_3_55
*1182 FILLER_3_57
*1183 FILLER_3_69
*1184 FILLER_3_81
*1185 FILLER_3_93
*1186 FILLER_40_109
*1187 FILLER_40_121
*1188 FILLER_40_133
*1189 FILLER_40_139
*1190 FILLER_40_141
*1191 FILLER_40_15
*1192 FILLER_40_153
*1193 FILLER_40_165
*1194 FILLER_40_177
*1195 FILLER_40_189
*1196 FILLER_40_195
*1197 FILLER_40_197
*1198 FILLER_40_209
*1199 FILLER_40_221
*1200 FILLER_40_233
*1201 FILLER_40_245
*1202 FILLER_40_251
*1203 FILLER_40_253
*1204 FILLER_40_265
*1205 FILLER_40_27
*1206 FILLER_40_277
*1207 FILLER_40_289
*1208 FILLER_40_29
*1209 FILLER_40_297
*1210 FILLER_40_3
*1211 FILLER_40_41
*1212 FILLER_40_53
*1213 FILLER_40_65
*1214 FILLER_40_77
*1215 FILLER_40_83
*1216 FILLER_40_85
*1217 FILLER_40_97
*1218 FILLER_41_105
*1219 FILLER_41_111
*1220 FILLER_41_113
*1221 FILLER_41_125
*1222 FILLER_41_137
*1223 FILLER_41_149
*1224 FILLER_41_15
*1225 FILLER_41_161
*1226 FILLER_41_167
*1227 FILLER_41_169
*1228 FILLER_41_181
*1229 FILLER_41_193
*1230 FILLER_41_205
*1231 FILLER_41_217
*1232 FILLER_41_223
*1233 FILLER_41_225
*1234 FILLER_41_237
*1235 FILLER_41_249
*1236 FILLER_41_261
*1237 FILLER_41_27
*1238 FILLER_41_273
*1239 FILLER_41_279
*1240 FILLER_41_281
*1241 FILLER_41_293
*1242 FILLER_41_3
*1243 FILLER_41_39
*1244 FILLER_41_51
*1245 FILLER_41_55
*1246 FILLER_41_57
*1247 FILLER_41_69
*1248 FILLER_41_81
*1249 FILLER_41_93
*1250 FILLER_42_109
*1251 FILLER_42_121
*1252 FILLER_42_133
*1253 FILLER_42_139
*1254 FILLER_42_141
*1255 FILLER_42_15
*1256 FILLER_42_153
*1257 FILLER_42_165
*1258 FILLER_42_177
*1259 FILLER_42_189
*1260 FILLER_42_195
*1261 FILLER_42_197
*1262 FILLER_42_209
*1263 FILLER_42_221
*1264 FILLER_42_233
*1265 FILLER_42_245
*1266 FILLER_42_251
*1267 FILLER_42_253
*1268 FILLER_42_265
*1269 FILLER_42_27
*1270 FILLER_42_277
*1271 FILLER_42_289
*1272 FILLER_42_29
*1273 FILLER_42_297
*1274 FILLER_42_3
*1275 FILLER_42_41
*1276 FILLER_42_53
*1277 FILLER_42_65
*1278 FILLER_42_77
*1279 FILLER_42_83
*1280 FILLER_42_85
*1281 FILLER_42_97
*1282 FILLER_43_105
*1283 FILLER_43_111
*1284 FILLER_43_113
*1285 FILLER_43_125
*1286 FILLER_43_137
*1287 FILLER_43_149
*1288 FILLER_43_15
*1289 FILLER_43_161
*1290 FILLER_43_167
*1291 FILLER_43_169
*1292 FILLER_43_181
*1293 FILLER_43_193
*1294 FILLER_43_205
*1295 FILLER_43_217
*1296 FILLER_43_223
*1297 FILLER_43_225
*1298 FILLER_43_237
*1299 FILLER_43_249
*1300 FILLER_43_261
*1301 FILLER_43_27
*1302 FILLER_43_273
*1303 FILLER_43_279
*1304 FILLER_43_281
*1305 FILLER_43_293
*1306 FILLER_43_3
*1307 FILLER_43_39
*1308 FILLER_43_51
*1309 FILLER_43_55
*1310 FILLER_43_57
*1311 FILLER_43_69
*1312 FILLER_43_81
*1313 FILLER_43_93
*1314 FILLER_44_109
*1315 FILLER_44_121
*1316 FILLER_44_133
*1317 FILLER_44_139
*1318 FILLER_44_141
*1319 FILLER_44_15
*1320 FILLER_44_153
*1321 FILLER_44_165
*1322 FILLER_44_177
*1323 FILLER_44_189
*1324 FILLER_44_195
*1325 FILLER_44_197
*1326 FILLER_44_209
*1327 FILLER_44_221
*1328 FILLER_44_233
*1329 FILLER_44_245
*1330 FILLER_44_251
*1331 FILLER_44_253
*1332 FILLER_44_265
*1333 FILLER_44_27
*1334 FILLER_44_277
*1335 FILLER_44_289
*1336 FILLER_44_29
*1337 FILLER_44_297
*1338 FILLER_44_3
*1339 FILLER_44_41
*1340 FILLER_44_53
*1341 FILLER_44_65
*1342 FILLER_44_77
*1343 FILLER_44_83
*1344 FILLER_44_85
*1345 FILLER_44_97
*1346 FILLER_45_105
*1347 FILLER_45_111
*1348 FILLER_45_113
*1349 FILLER_45_125
*1350 FILLER_45_137
*1351 FILLER_45_149
*1352 FILLER_45_15
*1353 FILLER_45_161
*1354 FILLER_45_167
*1355 FILLER_45_169
*1356 FILLER_45_181
*1357 FILLER_45_193
*1358 FILLER_45_205
*1359 FILLER_45_217
*1360 FILLER_45_223
*1361 FILLER_45_225
*1362 FILLER_45_237
*1363 FILLER_45_249
*1364 FILLER_45_261
*1365 FILLER_45_27
*1366 FILLER_45_273
*1367 FILLER_45_279
*1368 FILLER_45_281
*1369 FILLER_45_293
*1370 FILLER_45_3
*1371 FILLER_45_39
*1372 FILLER_45_51
*1373 FILLER_45_55
*1374 FILLER_45_57
*1375 FILLER_45_69
*1376 FILLER_45_81
*1377 FILLER_45_93
*1378 FILLER_46_109
*1379 FILLER_46_121
*1380 FILLER_46_133
*1381 FILLER_46_139
*1382 FILLER_46_141
*1383 FILLER_46_153
*1384 FILLER_46_165
*1385 FILLER_46_177
*1386 FILLER_46_189
*1387 FILLER_46_195
*1388 FILLER_46_197
*1389 FILLER_46_20
*1390 FILLER_46_209
*1391 FILLER_46_221
*1392 FILLER_46_233
*1393 FILLER_46_245
*1394 FILLER_46_251
*1395 FILLER_46_253
*1396 FILLER_46_265
*1397 FILLER_46_277
*1398 FILLER_46_289
*1399 FILLER_46_29
*1400 FILLER_46_297
*1401 FILLER_46_3
*1402 FILLER_46_41
*1403 FILLER_46_53
*1404 FILLER_46_65
*1405 FILLER_46_77
*1406 FILLER_46_8
*1407 FILLER_46_83
*1408 FILLER_46_85
*1409 FILLER_46_97
*1410 FILLER_47_105
*1411 FILLER_47_11
*1412 FILLER_47_111
*1413 FILLER_47_113
*1414 FILLER_47_125
*1415 FILLER_47_137
*1416 FILLER_47_149
*1417 FILLER_47_161
*1418 FILLER_47_167
*1419 FILLER_47_169
*1420 FILLER_47_181
*1421 FILLER_47_193
*1422 FILLER_47_205
*1423 FILLER_47_217
*1424 FILLER_47_223
*1425 FILLER_47_225
*1426 FILLER_47_23
*1427 FILLER_47_237
*1428 FILLER_47_249
*1429 FILLER_47_261
*1430 FILLER_47_273
*1431 FILLER_47_279
*1432 FILLER_47_281
*1433 FILLER_47_293
*1434 FILLER_47_3
*1435 FILLER_47_35
*1436 FILLER_47_47
*1437 FILLER_47_55
*1438 FILLER_47_57
*1439 FILLER_47_69
*1440 FILLER_47_81
*1441 FILLER_47_93
*1442 FILLER_48_109
*1443 FILLER_48_121
*1444 FILLER_48_133
*1445 FILLER_48_139
*1446 FILLER_48_141
*1447 FILLER_48_15
*1448 FILLER_48_153
*1449 FILLER_48_165
*1450 FILLER_48_177
*1451 FILLER_48_189
*1452 FILLER_48_195
*1453 FILLER_48_197
*1454 FILLER_48_209
*1455 FILLER_48_221
*1456 FILLER_48_233
*1457 FILLER_48_245
*1458 FILLER_48_251
*1459 FILLER_48_253
*1460 FILLER_48_265
*1461 FILLER_48_27
*1462 FILLER_48_277
*1463 FILLER_48_289
*1464 FILLER_48_29
*1465 FILLER_48_297
*1466 FILLER_48_3
*1467 FILLER_48_41
*1468 FILLER_48_53
*1469 FILLER_48_65
*1470 FILLER_48_77
*1471 FILLER_48_83
*1472 FILLER_48_85
*1473 FILLER_48_97
*1474 FILLER_49_105
*1475 FILLER_49_111
*1476 FILLER_49_113
*1477 FILLER_49_125
*1478 FILLER_49_137
*1479 FILLER_49_149
*1480 FILLER_49_15
*1481 FILLER_49_161
*1482 FILLER_49_167
*1483 FILLER_49_169
*1484 FILLER_49_181
*1485 FILLER_49_193
*1486 FILLER_49_205
*1487 FILLER_49_217
*1488 FILLER_49_223
*1489 FILLER_49_225
*1490 FILLER_49_237
*1491 FILLER_49_249
*1492 FILLER_49_261
*1493 FILLER_49_27
*1494 FILLER_49_273
*1495 FILLER_49_279
*1496 FILLER_49_281
*1497 FILLER_49_293
*1498 FILLER_49_3
*1499 FILLER_49_39
*1500 FILLER_49_51
*1501 FILLER_49_55
*1502 FILLER_49_57
*1503 FILLER_49_69
*1504 FILLER_49_81
*1505 FILLER_49_93
*1506 FILLER_4_109
*1507 FILLER_4_121
*1508 FILLER_4_133
*1509 FILLER_4_139
*1510 FILLER_4_141
*1511 FILLER_4_153
*1512 FILLER_4_165
*1513 FILLER_4_177
*1514 FILLER_4_189
*1515 FILLER_4_195
*1516 FILLER_4_197
*1517 FILLER_4_209
*1518 FILLER_4_21
*1519 FILLER_4_221
*1520 FILLER_4_233
*1521 FILLER_4_245
*1522 FILLER_4_251
*1523 FILLER_4_253
*1524 FILLER_4_265
*1525 FILLER_4_27
*1526 FILLER_4_277
*1527 FILLER_4_289
*1528 FILLER_4_29
*1529 FILLER_4_297
*1530 FILLER_4_3
*1531 FILLER_4_41
*1532 FILLER_4_53
*1533 FILLER_4_65
*1534 FILLER_4_77
*1535 FILLER_4_83
*1536 FILLER_4_85
*1537 FILLER_4_97
*1538 FILLER_50_109
*1539 FILLER_50_121
*1540 FILLER_50_133
*1541 FILLER_50_139
*1542 FILLER_50_141
*1543 FILLER_50_153
*1544 FILLER_50_165
*1545 FILLER_50_177
*1546 FILLER_50_189
*1547 FILLER_50_195
*1548 FILLER_50_197
*1549 FILLER_50_20
*1550 FILLER_50_209
*1551 FILLER_50_221
*1552 FILLER_50_233
*1553 FILLER_50_245
*1554 FILLER_50_251
*1555 FILLER_50_253
*1556 FILLER_50_265
*1557 FILLER_50_277
*1558 FILLER_50_289
*1559 FILLER_50_29
*1560 FILLER_50_297
*1561 FILLER_50_3
*1562 FILLER_50_41
*1563 FILLER_50_53
*1564 FILLER_50_65
*1565 FILLER_50_77
*1566 FILLER_50_8
*1567 FILLER_50_83
*1568 FILLER_50_85
*1569 FILLER_50_97
*1570 FILLER_51_105
*1571 FILLER_51_111
*1572 FILLER_51_113
*1573 FILLER_51_125
*1574 FILLER_51_137
*1575 FILLER_51_149
*1576 FILLER_51_15
*1577 FILLER_51_161
*1578 FILLER_51_167
*1579 FILLER_51_169
*1580 FILLER_51_181
*1581 FILLER_51_193
*1582 FILLER_51_205
*1583 FILLER_51_217
*1584 FILLER_51_223
*1585 FILLER_51_225
*1586 FILLER_51_237
*1587 FILLER_51_249
*1588 FILLER_51_261
*1589 FILLER_51_27
*1590 FILLER_51_273
*1591 FILLER_51_279
*1592 FILLER_51_281
*1593 FILLER_51_293
*1594 FILLER_51_3
*1595 FILLER_51_39
*1596 FILLER_51_51
*1597 FILLER_51_55
*1598 FILLER_51_57
*1599 FILLER_51_69
*1600 FILLER_51_81
*1601 FILLER_51_93
*1602 FILLER_52_109
*1603 FILLER_52_121
*1604 FILLER_52_133
*1605 FILLER_52_139
*1606 FILLER_52_141
*1607 FILLER_52_15
*1608 FILLER_52_153