*SPEF "ieee 1481-1999"
*DESIGN "user_module_341277789473735250"
*DATE "11:11:11 Fri 11 11, 1111"
*VENDOR "OpenRCX"
*PROGRAM "Parallel Extraction"
*VERSION "1.0"
*DESIGN_FLOW "NAME_SCOPE LOCAL" "PIN_CAP NONE"
*DIVIDER /
*DELIMITER :
*BUS_DELIMITER []
*T_UNIT 1 NS
*C_UNIT 1 PF
*R_UNIT 1 OHM
*L_UNIT 1 HENRY

*NAME_MAP
*1 io_in[0]
*2 io_in[1]
*3 io_in[2]
*4 io_in[3]
*5 io_in[4]
*6 io_in[5]
*7 io_in[6]
*8 io_in[7]
*9 io_out[0]
*10 io_out[1]
*11 io_out[2]
*12 io_out[3]
*13 io_out[4]
*14 io_out[5]
*15 io_out[6]
*16 io_out[7]
*19 _00_
*20 _01_
*21 _02_
*22 _03_
*23 _04_
*24 _05_
*25 _06_
*26 _07_
*27 _08_
*28 _09_
*29 _10_
*30 _11_
*31 _12_
*32 _13_
*33 _14_
*34 _15_
*35 _16_
*36 _18_
*37 _19_
*38 _20_
*39 _21_
*40 _22_
*41 _23_
*42 _24_
*43 _25_
*44 _26_
*45 _27_
*46 _28_
*47 _29_
*48 _30_
*49 _31_
*50 _32_
*51 _33_
*52 _34_
*53 _35_
*54 _36_
*55 _37_
*56 _38_
*57 _39_
*58 clknet_0__23_
*59 clknet_0__35_
*60 clknet_0_gate9\.out
*61 clknet_0_io_in[0]
*62 clknet_1_0__leaf__23_
*63 clknet_1_0__leaf__35_
*64 clknet_1_0__leaf_gate9\.out
*65 clknet_1_0__leaf_io_in[0]
*66 clknet_1_1__leaf__23_
*67 clknet_1_1__leaf__35_
*68 clknet_1_1__leaf_gate9\.out
*69 clknet_1_1__leaf_io_in[0]
*70 gate10\.out
*71 gate11\.out
*72 gate12\.out
*73 gate13\.out
*74 gate14\.out
*75 gate2\.out
*76 gate7\.out
*77 gate9\.out
*78 net1
*79 net10
*80 net2
*81 net3
*82 net4
*83 net5
*84 net6
*85 net7
*86 net8
*87 net9
*88 FILLER_0_109
*89 FILLER_0_113
*90 FILLER_0_125
*91 FILLER_0_137
*92 FILLER_0_141
*93 FILLER_0_15
*94 FILLER_0_153
*95 FILLER_0_165
*96 FILLER_0_169
*97 FILLER_0_181
*98 FILLER_0_193
*99 FILLER_0_197
*100 FILLER_0_209
*101 FILLER_0_221
*102 FILLER_0_225
*103 FILLER_0_237
*104 FILLER_0_249
*105 FILLER_0_253
*106 FILLER_0_265
*107 FILLER_0_27
*108 FILLER_0_277
*109 FILLER_0_281
*110 FILLER_0_29
*111 FILLER_0_293
*112 FILLER_0_3
*113 FILLER_0_41
*114 FILLER_0_53
*115 FILLER_0_57
*116 FILLER_0_69
*117 FILLER_0_81
*118 FILLER_0_85
*119 FILLER_0_97
*120 FILLER_10_109
*121 FILLER_10_121
*122 FILLER_10_133
*123 FILLER_10_139
*124 FILLER_10_141
*125 FILLER_10_15
*126 FILLER_10_153
*127 FILLER_10_165
*128 FILLER_10_177
*129 FILLER_10_189
*130 FILLER_10_195
*131 FILLER_10_197
*132 FILLER_10_209
*133 FILLER_10_221
*134 FILLER_10_233
*135 FILLER_10_245
*136 FILLER_10_251
*137 FILLER_10_253
*138 FILLER_10_265
*139 FILLER_10_27
*140 FILLER_10_277
*141 FILLER_10_289
*142 FILLER_10_29
*143 FILLER_10_297
*144 FILLER_10_3
*145 FILLER_10_41
*146 FILLER_10_53
*147 FILLER_10_65
*148 FILLER_10_77
*149 FILLER_10_83
*150 FILLER_10_85
*151 FILLER_10_97
*152 FILLER_11_105
*153 FILLER_11_111
*154 FILLER_11_113
*155 FILLER_11_125
*156 FILLER_11_137
*157 FILLER_11_149
*158 FILLER_11_15
*159 FILLER_11_161
*160 FILLER_11_167
*161 FILLER_11_169
*162 FILLER_11_181
*163 FILLER_11_193
*164 FILLER_11_205
*165 FILLER_11_217
*166 FILLER_11_223
*167 FILLER_11_225
*168 FILLER_11_237
*169 FILLER_11_249
*170 FILLER_11_261
*171 FILLER_11_27
*172 FILLER_11_273
*173 FILLER_11_279
*174 FILLER_11_281
*175 FILLER_11_293
*176 FILLER_11_3
*177 FILLER_11_39
*178 FILLER_11_51
*179 FILLER_11_55
*180 FILLER_11_57
*181 FILLER_11_69
*182 FILLER_11_81
*183 FILLER_11_93
*184 FILLER_12_109
*185 FILLER_12_121
*186 FILLER_12_133
*187 FILLER_12_139
*188 FILLER_12_141
*189 FILLER_12_15
*190 FILLER_12_153
*191 FILLER_12_165
*192 FILLER_12_177
*193 FILLER_12_189
*194 FILLER_12_195
*195 FILLER_12_197
*196 FILLER_12_209
*197 FILLER_12_221
*198 FILLER_12_233
*199 FILLER_12_245
*200 FILLER_12_251
*201 FILLER_12_253
*202 FILLER_12_265
*203 FILLER_12_27
*204 FILLER_12_277
*205 FILLER_12_289
*206 FILLER_12_29
*207 FILLER_12_297
*208 FILLER_12_3
*209 FILLER_12_41
*210 FILLER_12_53
*211 FILLER_12_65
*212 FILLER_12_77
*213 FILLER_12_83
*214 FILLER_12_85
*215 FILLER_12_97
*216 FILLER_13_105
*217 FILLER_13_111
*218 FILLER_13_113
*219 FILLER_13_125
*220 FILLER_13_137
*221 FILLER_13_149
*222 FILLER_13_15
*223 FILLER_13_161
*224 FILLER_13_167
*225 FILLER_13_169
*226 FILLER_13_181
*227 FILLER_13_193
*228 FILLER_13_205
*229 FILLER_13_217
*230 FILLER_13_223
*231 FILLER_13_225
*232 FILLER_13_237
*233 FILLER_13_249
*234 FILLER_13_261
*235 FILLER_13_27
*236 FILLER_13_273
*237 FILLER_13_279
*238 FILLER_13_281
*239 FILLER_13_293
*240 FILLER_13_3
*241 FILLER_13_39
*242 FILLER_13_51
*243 FILLER_13_55
*244 FILLER_13_57
*245 FILLER_13_69
*246 FILLER_13_81
*247 FILLER_13_93
*248 FILLER_14_109
*249 FILLER_14_121
*250 FILLER_14_133
*251 FILLER_14_139
*252 FILLER_14_141
*253 FILLER_14_15
*254 FILLER_14_153
*255 FILLER_14_165
*256 FILLER_14_177
*257 FILLER_14_189
*258 FILLER_14_195
*259 FILLER_14_197
*260 FILLER_14_209
*261 FILLER_14_221
*262 FILLER_14_233
*263 FILLER_14_245
*264 FILLER_14_251
*265 FILLER_14_253
*266 FILLER_14_265
*267 FILLER_14_27
*268 FILLER_14_277
*269 FILLER_14_289
*270 FILLER_14_29
*271 FILLER_14_297
*272 FILLER_14_3
*273 FILLER_14_41
*274 FILLER_14_53
*275 FILLER_14_65
*276 FILLER_14_77
*277 FILLER_14_83
*278 FILLER_14_85
*279 FILLER_14_97
*280 FILLER_15_105
*281 FILLER_15_111
*282 FILLER_15_113
*283 FILLER_15_125
*284 FILLER_15_137
*285 FILLER_15_149
*286 FILLER_15_161
*287 FILLER_15_167
*288 FILLER_15_169
*289 FILLER_15_181
*290 FILLER_15_193
*291 FILLER_15_20
*292 FILLER_15_205
*293 FILLER_15_217
*294 FILLER_15_223
*295 FILLER_15_225
*296 FILLER_15_237
*297 FILLER_15_249
*298 FILLER_15_261
*299 FILLER_15_273
*300 FILLER_15_279
*301 FILLER_15_281
*302 FILLER_15_293
*303 FILLER_15_3
*304 FILLER_15_32
*305 FILLER_15_44
*306 FILLER_15_57
*307 FILLER_15_69
*308 FILLER_15_8
*309 FILLER_15_81
*310 FILLER_15_93
*311 FILLER_16_109
*312 FILLER_16_121
*313 FILLER_16_133
*314 FILLER_16_139
*315 FILLER_16_141
*316 FILLER_16_153
*317 FILLER_16_16
*318 FILLER_16_165
*319 FILLER_16_177
*320 FILLER_16_189
*321 FILLER_16_195
*322 FILLER_16_197
*323 FILLER_16_209
*324 FILLER_16_221
*325 FILLER_16_233
*326 FILLER_16_245
*327 FILLER_16_251
*328 FILLER_16_253
*329 FILLER_16_265
*330 FILLER_16_277
*331 FILLER_16_289
*332 FILLER_16_29
*333 FILLER_16_297
*334 FILLER_16_3
*335 FILLER_16_41
*336 FILLER_16_53
*337 FILLER_16_65
*338 FILLER_16_77
*339 FILLER_16_83
*340 FILLER_16_85
*341 FILLER_16_97
*342 FILLER_17_105
*343 FILLER_17_111
*344 FILLER_17_113
*345 FILLER_17_125
*346 FILLER_17_137
*347 FILLER_17_149
*348 FILLER_17_161
*349 FILLER_17_167
*350 FILLER_17_169
*351 FILLER_17_181
*352 FILLER_17_193
*353 FILLER_17_205
*354 FILLER_17_217
*355 FILLER_17_22
*356 FILLER_17_223
*357 FILLER_17_225
*358 FILLER_17_237
*359 FILLER_17_249
*360 FILLER_17_261
*361 FILLER_17_273
*362 FILLER_17_279
*363 FILLER_17_281
*364 FILLER_17_293
*365 FILLER_17_3
*366 FILLER_17_34
*367 FILLER_17_46
*368 FILLER_17_54
*369 FILLER_17_57
*370 FILLER_17_69
*371 FILLER_17_81
*372 FILLER_17_93
*373 FILLER_18_109
*374 FILLER_18_121
*375 FILLER_18_133
*376 FILLER_18_139
*377 FILLER_18_141
*378 FILLER_18_15
*379 FILLER_18_153
*380 FILLER_18_165
*381 FILLER_18_177
*382 FILLER_18_189
*383 FILLER_18_195
*384 FILLER_18_197
*385 FILLER_18_209
*386 FILLER_18_221
*387 FILLER_18_233
*388 FILLER_18_245
*389 FILLER_18_251
*390 FILLER_18_253
*391 FILLER_18_265
*392 FILLER_18_27
*393 FILLER_18_277
*394 FILLER_18_289
*395 FILLER_18_29
*396 FILLER_18_297
*397 FILLER_18_3
*398 FILLER_18_41
*399 FILLER_18_53
*400 FILLER_18_65
*401 FILLER_18_77
*402 FILLER_18_83
*403 FILLER_18_85
*404 FILLER_18_97
*405 FILLER_19_105
*406 FILLER_19_111
*407 FILLER_19_113
*408 FILLER_19_125
*409 FILLER_19_137
*410 FILLER_19_149
*411 FILLER_19_161
*412 FILLER_19_167
*413 FILLER_19_169
*414 FILLER_19_181
*415 FILLER_19_193
*416 FILLER_19_205
*417 FILLER_19_21
*418 FILLER_19_217
*419 FILLER_19_223
*420 FILLER_19_225
*421 FILLER_19_237
*422 FILLER_19_249
*423 FILLER_19_261
*424 FILLER_19_273
*425 FILLER_19_279
*426 FILLER_19_281
*427 FILLER_19_293
*428 FILLER_19_3
*429 FILLER_19_30
*430 FILLER_19_42
*431 FILLER_19_54
*432 FILLER_19_57
*433 FILLER_19_69
*434 FILLER_19_8
*435 FILLER_19_81
*436 FILLER_19_93
*437 FILLER_1_105
*438 FILLER_1_111
*439 FILLER_1_113
*440 FILLER_1_125
*441 FILLER_1_137
*442 FILLER_1_149
*443 FILLER_1_15
*444 FILLER_1_161
*445 FILLER_1_167
*446 FILLER_1_169
*447 FILLER_1_181
*448 FILLER_1_193
*449 FILLER_1_205
*450 FILLER_1_217
*451 FILLER_1_223
*452 FILLER_1_225
*453 FILLER_1_237
*454 FILLER_1_249
*455 FILLER_1_261
*456 FILLER_1_27
*457 FILLER_1_273
*458 FILLER_1_279
*459 FILLER_1_281
*460 FILLER_1_293
*461 FILLER_1_3
*462 FILLER_1_39
*463 FILLER_1_51
*464 FILLER_1_55
*465 FILLER_1_57
*466 FILLER_1_69
*467 FILLER_1_81
*468 FILLER_1_93
*469 FILLER_20_109
*470 FILLER_20_11
*471 FILLER_20_121
*472 FILLER_20_133
*473 FILLER_20_139
*474 FILLER_20_141
*475 FILLER_20_153
*476 FILLER_20_165
*477 FILLER_20_177
*478 FILLER_20_189
*479 FILLER_20_19
*480 FILLER_20_195
*481 FILLER_20_197
*482 FILLER_20_209
*483 FILLER_20_221
*484 FILLER_20_233
*485 FILLER_20_245
*486 FILLER_20_251
*487 FILLER_20_253
*488 FILLER_20_265
*489 FILLER_20_27
*490 FILLER_20_277
*491 FILLER_20_289
*492 FILLER_20_29
*493 FILLER_20_297
*494 FILLER_20_3
*495 FILLER_20_41
*496 FILLER_20_53
*497 FILLER_20_65
*498 FILLER_20_77
*499 FILLER_20_83
*500 FILLER_20_85
*501 FILLER_20_97
*502 FILLER_21_105
*503 FILLER_21_11
*504 FILLER_21_111
*505 FILLER_21_113
*506 FILLER_21_125
*507 FILLER_21_137
*508 FILLER_21_149
*509 FILLER_21_161
*510 FILLER_21_167
*511 FILLER_21_169
*512 FILLER_21_181
*513 FILLER_21_193
*514 FILLER_21_205
*515 FILLER_21_217
*516 FILLER_21_223
*517 FILLER_21_225
*518 FILLER_21_237
*519 FILLER_21_24
*520 FILLER_21_249
*521 FILLER_21_261
*522 FILLER_21_273
*523 FILLER_21_279
*524 FILLER_21_281
*525 FILLER_21_293
*526 FILLER_21_3
*527 FILLER_21_36
*528 FILLER_21_48
*529 FILLER_21_57
*530 FILLER_21_69
*531 FILLER_21_81
*532 FILLER_21_93
*533 FILLER_22_109
*534 FILLER_22_121
*535 FILLER_22_133
*536 FILLER_22_139
*537 FILLER_22_141
*538 FILLER_22_15
*539 FILLER_22_153
*540 FILLER_22_165
*541 FILLER_22_177
*542 FILLER_22_189
*543 FILLER_22_195
*544 FILLER_22_197
*545 FILLER_22_209
*546 FILLER_22_221
*547 FILLER_22_233
*548 FILLER_22_245
*549 FILLER_22_25
*550 FILLER_22_251
*551 FILLER_22_253
*552 FILLER_22_265
*553 FILLER_22_277
*554 FILLER_22_289
*555 FILLER_22_29
*556 FILLER_22_297
*557 FILLER_22_3
*558 FILLER_22_41
*559 FILLER_22_53
*560 FILLER_22_65
*561 FILLER_22_77
*562 FILLER_22_83
*563 FILLER_22_85
*564 FILLER_22_97
*565 FILLER_23_105
*566 FILLER_23_111
*567 FILLER_23_113
*568 FILLER_23_125
*569 FILLER_23_137
*570 FILLER_23_149
*571 FILLER_23_15
*572 FILLER_23_161
*573 FILLER_23_167
*574 FILLER_23_169
*575 FILLER_23_181
*576 FILLER_23_193
*577 FILLER_23_205
*578 FILLER_23_217
*579 FILLER_23_223
*580 FILLER_23_225
*581 FILLER_23_237
*582 FILLER_23_249
*583 FILLER_23_261
*584 FILLER_23_273
*585 FILLER_23_279
*586 FILLER_23_281
*587 FILLER_23_29
*588 FILLER_23_293
*589 FILLER_23_3
*590 FILLER_23_41
*591 FILLER_23_53
*592 FILLER_23_57
*593 FILLER_23_69
*594 FILLER_23_81
*595 FILLER_23_93
*596 FILLER_24_109
*597 FILLER_24_121
*598 FILLER_24_133
*599 FILLER_24_139
*600 FILLER_24_141
*601 FILLER_24_153
*602 FILLER_24_165
*603 FILLER_24_177
*604 FILLER_24_189
*605 FILLER_24_195
*606 FILLER_24_197
*607 FILLER_24_209
*608 FILLER_24_21
*609 FILLER_24_221
*610 FILLER_24_233
*611 FILLER_24_245
*612 FILLER_24_251
*613 FILLER_24_253
*614 FILLER_24_265
*615 FILLER_24_27
*616 FILLER_24_277
*617 FILLER_24_289
*618 FILLER_24_29
*619 FILLER_24_297
*620 FILLER_24_3
*621 FILLER_24_41
*622 FILLER_24_53
*623 FILLER_24_65
*624 FILLER_24_77
*625 FILLER_24_83
*626 FILLER_24_85
*627 FILLER_24_9
*628 FILLER_24_97
*629 FILLER_25_105
*630 FILLER_25_111
*631 FILLER_25_113
*632 FILLER_25_125
*633 FILLER_25_13
*634 FILLER_25_137
*635 FILLER_25_149
*636 FILLER_25_161
*637 FILLER_25_167
*638 FILLER_25_169
*639 FILLER_25_181
*640 FILLER_25_193
*641 FILLER_25_205
*642 FILLER_25_217
*643 FILLER_25_223
*644 FILLER_25_225
*645 FILLER_25_237
*646 FILLER_25_249
*647 FILLER_25_261
*648 FILLER_25_273
*649 FILLER_25_279
*650 FILLER_25_28
*651 FILLER_25_281
*652 FILLER_25_293
*653 FILLER_25_3
*654 FILLER_25_34
*655 FILLER_25_38
*656 FILLER_25_50
*657 FILLER_25_57
*658 FILLER_25_69
*659 FILLER_25_81
*660 FILLER_25_93
*661 FILLER_26_109
*662 FILLER_26_121
*663 FILLER_26_133
*664 FILLER_26_139
*665 FILLER_26_14
*666 FILLER_26_141
*667 FILLER_26_153
*668 FILLER_26_165
*669 FILLER_26_177
*670 FILLER_26_189
*671 FILLER_26_195
*672 FILLER_26_197
*673 FILLER_26_209
*674 FILLER_26_221
*675 FILLER_26_233
*676 FILLER_26_245
*677 FILLER_26_251
*678 FILLER_26_253
*679 FILLER_26_26
*680 FILLER_26_265
*681 FILLER_26_277
*682 FILLER_26_289
*683 FILLER_26_29
*684 FILLER_26_297
*685 FILLER_26_3
*686 FILLER_26_41
*687 FILLER_26_53
*688 FILLER_26_65
*689 FILLER_26_77
*690 FILLER_26_83
*691 FILLER_26_85
*692 FILLER_26_97
*693 FILLER_27_102
*694 FILLER_27_110
*695 FILLER_27_113
*696 FILLER_27_125
*697 FILLER_27_137
*698 FILLER_27_149
*699 FILLER_27_15
*700 FILLER_27_161
*701 FILLER_27_167
*702 FILLER_27_169
*703 FILLER_27_181
*704 FILLER_27_193
*705 FILLER_27_205
*706 FILLER_27_217
*707 FILLER_27_223
*708 FILLER_27_225
*709 FILLER_27_23
*710 FILLER_27_237
*711 FILLER_27_249
*712 FILLER_27_261
*713 FILLER_27_273
*714 FILLER_27_279
*715 FILLER_27_281
*716 FILLER_27_293
*717 FILLER_27_3
*718 FILLER_27_33
*719 FILLER_27_42
*720 FILLER_27_54
*721 FILLER_27_57
*722 FILLER_27_66
*723 FILLER_27_78
*724 FILLER_27_9
*725 FILLER_27_90
*726 FILLER_28_109
*727 FILLER_28_121
*728 FILLER_28_133
*729 FILLER_28_139
*730 FILLER_28_141
*731 FILLER_28_153
*732 FILLER_28_16
*733 FILLER_28_165
*734 FILLER_28_177
*735 FILLER_28_189
*736 FILLER_28_195
*737 FILLER_28_197
*738 FILLER_28_209
*739 FILLER_28_221
*740 FILLER_28_233
*741 FILLER_28_245
*742 FILLER_28_251
*743 FILLER_28_253
*744 FILLER_28_26
*745 FILLER_28_265
*746 FILLER_28_277
*747 FILLER_28_289
*748 FILLER_28_29
*749 FILLER_28_297
*750 FILLER_28_3
*751 FILLER_28_41
*752 FILLER_28_53
*753 FILLER_28_65
*754 FILLER_28_77
*755 FILLER_28_8
*756 FILLER_28_83
*757 FILLER_28_85
*758 FILLER_28_97
*759 FILLER_29_102
*760 FILLER_29_110
*761 FILLER_29_113
*762 FILLER_29_12
*763 FILLER_29_125
*764 FILLER_29_137
*765 FILLER_29_149
*766 FILLER_29_161
*767 FILLER_29_167
*768 FILLER_29_169
*769 FILLER_29_181
*770 FILLER_29_193
*771 FILLER_29_205
*772 FILLER_29_217
*773 FILLER_29_223
*774 FILLER_29_225
*775 FILLER_29_237
*776 FILLER_29_24
*777 FILLER_29_249
*778 FILLER_29_261
*779 FILLER_29_273
*780 FILLER_29_279
*781 FILLER_29_281
*782 FILLER_29_293
*783 FILLER_29_3
*784 FILLER_29_36
*785 FILLER_29_48
*786 FILLER_29_57
*787 FILLER_29_66
*788 FILLER_29_78
*789 FILLER_29_90
*790 FILLER_2_109
*791 FILLER_2_121
*792 FILLER_2_133
*793 FILLER_2_139
*794 FILLER_2_141
*795 FILLER_2_15
*796 FILLER_2_153
*797 FILLER_2_165
*798 FILLER_2_177
*799 FILLER_2_189
*800 FILLER_2_195
*801 FILLER_2_197
*802 FILLER_2_209
*803 FILLER_2_221
*804 FILLER_2_233
*805 FILLER_2_245
*806 FILLER_2_251
*807 FILLER_2_253
*808 FILLER_2_265
*809 FILLER_2_27
*810 FILLER_2_277
*811 FILLER_2_289
*812 FILLER_2_29
*813 FILLER_2_297
*814 FILLER_2_3
*815 FILLER_2_41
*816 FILLER_2_53
*817 FILLER_2_65
*818 FILLER_2_77
*819 FILLER_2_83
*820 FILLER_2_85
*821 FILLER_2_97
*822 FILLER_30_109
*823 FILLER_30_121
*824 FILLER_30_133
*825 FILLER_30_139
*826 FILLER_30_141
*827 FILLER_30_153
*828 FILLER_30_165
*829 FILLER_30_177
*830 FILLER_30_189
*831 FILLER_30_19
*832 FILLER_30_195
*833 FILLER_30_197
*834 FILLER_30_209
*835 FILLER_30_221
*836 FILLER_30_233
*837 FILLER_30_245
*838 FILLER_30_251
*839 FILLER_30_253
*840 FILLER_30_265
*841 FILLER_30_27
*842 FILLER_30_277
*843 FILLER_30_289
*844 FILLER_30_29
*845 FILLER_30_297
*846 FILLER_30_3
*847 FILLER_30_41
*848 FILLER_30_53
*849 FILLER_30_65
*850 FILLER_30_77
*851 FILLER_30_83
*852 FILLER_30_85
*853 FILLER_30_97
*854 FILLER_31_105
*855 FILLER_31_111
*856 FILLER_31_113
*857 FILLER_31_125
*858 FILLER_31_137
*859 FILLER_31_14
*860 FILLER_31_149
*861 FILLER_31_161
*862 FILLER_31_167
*863 FILLER_31_169
*864 FILLER_31_181
*865 FILLER_31_193
*866 FILLER_31_205
*867 FILLER_31_217
*868 FILLER_31_223
*869 FILLER_31_225
*870 FILLER_31_23
*871 FILLER_31_237
*872 FILLER_31_249
*873 FILLER_31_261
*874 FILLER_31_273
*875 FILLER_31_279
*876 FILLER_31_281
*877 FILLER_31_293
*878 FILLER_31_3
*879 FILLER_31_35
*880 FILLER_31_47
*881 FILLER_31_55
*882 FILLER_31_57
*883 FILLER_31_69
*884 FILLER_31_81
*885 FILLER_31_93
*886 FILLER_32_109
*887 FILLER_32_121
*888 FILLER_32_133
*889 FILLER_32_139
*890 FILLER_32_141
*891 FILLER_32_153
*892 FILLER_32_165
*893 FILLER_32_177
*894 FILLER_32_189
*895 FILLER_32_195
*896 FILLER_32_197
*897 FILLER_32_209
*898 FILLER_32_21
*899 FILLER_32_221
*900 FILLER_32_233
*901 FILLER_32_245
*902 FILLER_32_251
*903 FILLER_32_253
*904 FILLER_32_265
*905 FILLER_32_27
*906 FILLER_32_277
*907 FILLER_32_289
*908 FILLER_32_29
*909 FILLER_32_297
*910 FILLER_32_3
*911 FILLER_32_41
*912 FILLER_32_53
*913 FILLER_32_65
*914 FILLER_32_77
*915 FILLER_32_83
*916 FILLER_32_85
*917 FILLER_32_9
*918 FILLER_32_97
*919 FILLER_33_105
*920 FILLER_33_111
*921 FILLER_33_113
*922 FILLER_33_125
*923 FILLER_33_137
*924 FILLER_33_149
*925 FILLER_33_15
*926 FILLER_33_161
*927 FILLER_33_167
*928 FILLER_33_169
*929 FILLER_33_181
*930 FILLER_33_193
*931 FILLER_33_205
*932 FILLER_33_217
*933 FILLER_33_223
*934 FILLER_33_225
*935 FILLER_33_237
*936 FILLER_33_249
*937 FILLER_33_261
*938 FILLER_33_27
*939 FILLER_33_273
*940 FILLER_33_279
*941 FILLER_33_281
*942 FILLER_33_293
*943 FILLER_33_3
*944 FILLER_33_39
*945 FILLER_33_51
*946 FILLER_33_55
*947 FILLER_33_57
*948 FILLER_33_69
*949 FILLER_33_81
*950 FILLER_33_93
*951 FILLER_34_109
*952 FILLER_34_121
*953 FILLER_34_133
*954 FILLER_34_139
*955 FILLER_34_141
*956 FILLER_34_15
*957 FILLER_34_153
*958 FILLER_34_165
*959 FILLER_34_177
*960 FILLER_34_189
*961 FILLER_34_195
*962 FILLER_34_197
*963 FILLER_34_209
*964 FILLER_34_221
*965 FILLER_34_233
*966 FILLER_34_245
*967 FILLER_34_251
*968 FILLER_34_253
*969 FILLER_34_265
*970 FILLER_34_27
*971 FILLER_34_277
*972 FILLER_34_289
*973 FILLER_34_29
*974 FILLER_34_297
*975 FILLER_34_3
*976 FILLER_34_33
*977 FILLER_34_37
*978 FILLER_34_49
*979 FILLER_34_61
*980 FILLER_34_73
*981 FILLER_34_81
*982 FILLER_34_85
*983 FILLER_34_97
*984 FILLER_35_105
*985 FILLER_35_111
*986 FILLER_35_113
*987 FILLER_35_125
*988 FILLER_35_137
*989 FILLER_35_149
*990 FILLER_35_161
*991 FILLER_35_167
*992 FILLER_35_169
*993 FILLER_35_181
*994 FILLER_35_193
*995 FILLER_35_205
*996 FILLER_35_217
*997 FILLER_35_223
*998 FILLER_35_225
*999 FILLER_35_237
*1000 FILLER_35_249
*1001 FILLER_35_25
*1002 FILLER_35_261
*1003 FILLER_35_273
*1004 FILLER_35_279
*1005 FILLER_35_281
*1006 FILLER_35_293
*1007 FILLER_35_3
*1008 FILLER_35_37
*1009 FILLER_35_49
*1010 FILLER_35_55
*1011 FILLER_35_57
*1012 FILLER_35_69
*1013 FILLER_35_81
*1014 FILLER_35_93
*1015 FILLER_36_109
*1016 FILLER_36_121
*1017 FILLER_36_133
*1018 FILLER_36_139
*1019 FILLER_36_141
*1020 FILLER_36_153
*1021 FILLER_36_165
*1022 FILLER_36_177
*1023 FILLER_36_189
*1024 FILLER_36_195
*1025 FILLER_36_197
*1026 FILLER_36_209
*1027 FILLER_36_221
*1028 FILLER_36_233
*1029 FILLER_36_245
*1030 FILLER_36_25
*1031 FILLER_36_251
*1032 FILLER_36_253
*1033 FILLER_36_265
*1034 FILLER_36_277
*1035 FILLER_36_289
*1036 FILLER_36_29
*1037 FILLER_36_297
*1038 FILLER_36_3
*1039 FILLER_36_41
*1040 FILLER_36_53
*1041 FILLER_36_65
*1042 FILLER_36_77
*1043 FILLER_36_83
*1044 FILLER_36_85
*1045 FILLER_36_97
*1046 FILLER_37_105
*1047 FILLER_37_111
*1048 FILLER_37_113
*1049 FILLER_37_125
*1050 FILLER_37_137
*1051 FILLER_37_149
*1052 FILLER_37_16
*1053 FILLER_37_161
*1054 FILLER_37_167
*1055 FILLER_37_169
*1056 FILLER_37_181
*1057 FILLER_37_193
*1058 FILLER_37_205
*1059 FILLER_37_217
*1060 FILLER_37_223
*1061 FILLER_37_225
*1062 FILLER_37_237
*1063 FILLER_37_249
*1064 FILLER_37_261
*1065 FILLER_37_273
*1066 FILLER_37_279
*1067 FILLER_37_28
*1068 FILLER_37_281
*1069 FILLER_37_293
*1070 FILLER_37_3
*1071 FILLER_37_40
*1072 FILLER_37_52
*1073 FILLER_37_57
*1074 FILLER_37_69
*1075 FILLER_37_81
*1076 FILLER_37_9
*1077 FILLER_37_93
*1078 FILLER_38_10
*1079 FILLER_38_109
*1080 FILLER_38_121
*1081 FILLER_38_133
*1082 FILLER_38_139
*1083 FILLER_38_141
*1084 FILLER_38_153
*1085 FILLER_38_165
*1086 FILLER_38_177
*1087 FILLER_38_189
*1088 FILLER_38_195
*1089 FILLER_38_197
*1090 FILLER_38_209
*1091 FILLER_38_22
*1092 FILLER_38_221
*1093 FILLER_38_233
*1094 FILLER_38_245
*1095 FILLER_38_251
*1096 FILLER_38_253
*1097 FILLER_38_265
*1098 FILLER_38_277
*1099 FILLER_38_289
*1100 FILLER_38_29
*1101 FILLER_38_297
*1102 FILLER_38_3
*1103 FILLER_38_41
*1104 FILLER_38_53
*1105 FILLER_38_65
*1106 FILLER_38_77
*1107 FILLER_38_83
*1108 FILLER_38_85
*1109 FILLER_38_97
*1110 FILLER_39_105
*1111 FILLER_39_111
*1112 FILLER_39_113
*1113 FILLER_39_125
*1114 FILLER_39_137
*1115 FILLER_39_14
*1116 FILLER_39_149
*1117 FILLER_39_161
*1118 FILLER_39_167
*1119 FILLER_39_169
*1120 FILLER_39_181
*1121 FILLER_39_193
*1122 FILLER_39_205
*1123 FILLER_39_217
*1124 FILLER_39_223
*1125 FILLER_39_225
*1126 FILLER_39_237
*1127 FILLER_39_249
*1128 FILLER_39_25
*1129 FILLER_39_261
*1130 FILLER_39_273
*1131 FILLER_39_279
*1132 FILLER_39_281
*1133 FILLER_39_293
*1134 FILLER_39_3
*1135 FILLER_39_37
*1136 FILLER_39_49
*1137 FILLER_39_55
*1138 FILLER_39_57
*1139 FILLER_39_69
*1140 FILLER_39_81
*1141 FILLER_39_93
*1142 FILLER_3_105
*1143 FILLER_3_111
*1144 FILLER_3_113
*1145 FILLER_3_125
*1146 FILLER_3_137
*1147 FILLER_3_149
*1148 FILLER_3_15
*1149 FILLER_3_161
*1150 FILLER_3_167
*1151 FILLER_3_169
*1152 FILLER_3_181
*1153 FILLER_3_193
*1154 FILLER_3_205
*1155 FILLER_3_217
*1156 FILLER_3_223
*1157 FILLER_3_225
*1158 FILLER_3_237
*1159 FILLER_3_249
*1160 FILLER_3_261
*1161 FILLER_3_27
*1162 FILLER_3_273
*1163 FILLER_3_279
*1164 FILLER_3_281
*1165 FILLER_3_293
*1166 FILLER_3_3
*1167 FILLER_3_39
*1168 FILLER_3_51
*1169 FILLER_3_55
*1170 FILLER_3_57
*1171 FILLER_3_69
*1172 FILLER_3_81
*1173 FILLER_3_93
*1174 FILLER_40_109
*1175 FILLER_40_121
*1176 FILLER_40_133
*1177 FILLER_40_139
*1178 FILLER_40_141
*1179 FILLER_40_153
*1180 FILLER_40_165
*1181 FILLER_40_177
*1182 FILLER_40_189
*1183 FILLER_40_195
*1184 FILLER_40_197
*1185 FILLER_40_209
*1186 FILLER_40_221
*1187 FILLER_40_233
*1188 FILLER_40_245
*1189 FILLER_40_25
*1190 FILLER_40_251
*1191 FILLER_40_253
*1192 FILLER_40_265
*1193 FILLER_40_277
*1194 FILLER_40_289
*1195 FILLER_40_29
*1196 FILLER_40_297
*1197 FILLER_40_3
*1198 FILLER_40_41
*1199 FILLER_40_53
*1200 FILLER_40_65
*1201 FILLER_40_77
*1202 FILLER_40_83
*1203 FILLER_40_85
*1204 FILLER_40_97
*1205 FILLER_41_105
*1206 FILLER_41_111
*1207 FILLER_41_113
*1208 FILLER_41_125
*1209 FILLER_41_137
*1210 FILLER_41_149
*1211 FILLER_41_161
*1212 FILLER_41_167
*1213 FILLER_41_169
*1214 FILLER_41_181
*1215 FILLER_41_193
*1216 FILLER_41_205
*1217 FILLER_41_217
*1218 FILLER_41_223
*1219 FILLER_41_225
*1220 FILLER_41_237
*1221 FILLER_41_249
*1222 FILLER_41_25
*1223 FILLER_41_261
*1224 FILLER_41_273
*1225 FILLER_41_279
*1226 FILLER_41_281
*1227 FILLER_41_293
*1228 FILLER_41_3
*1229 FILLER_41_37
*1230 FILLER_41_49
*1231 FILLER_41_55
*1232 FILLER_41_57
*1233 FILLER_41_69
*1234 FILLER_41_81
*1235 FILLER_41_93
*1236 FILLER_42_109
*1237 FILLER_42_121
*1238 FILLER_42_133
*1239 FILLER_42_139
*1240 FILLER_42_141
*1241 FILLER_42_153
*1242 FILLER_42_165
*1243 FILLER_42_177
*1244 FILLER_42_189
*1245 FILLER_42_195
*1246 FILLER_42_197
*1247 FILLER_42_209
*1248 FILLER_42_221
*1249 FILLER_42_233
*1250 FILLER_42_245
*1251 FILLER_42_251
*1252 FILLER_42_253
*1253 FILLER_42_26
*1254 FILLER_42_265
*1255 FILLER_42_277
*1256 FILLER_42_289
*1257 FILLER_42_29
*1258 FILLER_42_297
*1259 FILLER_42_3
*1260 FILLER_42_41
*1261 FILLER_42_53
*1262 FILLER_42_65
*1263 FILLER_42_77
*1264 FILLER_42_83
*1265 FILLER_42_85
*1266 FILLER_42_97
*1267 FILLER_43_105
*1268 FILLER_43_111
*1269 FILLER_43_113
*1270 FILLER_43_125
*1271 FILLER_43_13
*1272 FILLER_43_137
*1273 FILLER_43_149
*1274 FILLER_43_161
*1275 FILLER_43_167
*1276 FILLER_43_169
*1277 FILLER_43_181
*1278 FILLER_43_193
*1279 FILLER_43_205
*1280 FILLER_43_217
*1281 FILLER_43_223
*1282 FILLER_43_225
*1283 FILLER_43_237
*1284 FILLER_43_249
*1285 FILLER_43_25
*1286 FILLER_43_261
*1287 FILLER_43_273
*1288 FILLER_43_279
*1289 FILLER_43_281
*1290 FILLER_43_293
*1291 FILLER_43_3
*1292 FILLER_43_32
*1293 FILLER_43_44
*1294 FILLER_43_57
*1295 FILLER_43_69
*1296 FILLER_43_81
*1297 FILLER_43_93
*1298 FILLER_44_109
*1299 FILLER_44_121
*1300 FILLER_44_133
*1301 FILLER_44_139
*1302 FILLER_44_141
*1303 FILLER_44_153
*1304 FILLER_44_165
*1305 FILLER_44_177
*1306 FILLER_44_189
*1307 FILLER_44_195
*1308 FILLER_44_197
*1309 FILLER_44_209
*1310 FILLER_44_221
*1311 FILLER_44_233
*1312 FILLER_44_245
*1313 FILLER_44_25
*1314 FILLER_44_251
*1315 FILLER_44_253
*1316 FILLER_44_265
*1317 FILLER_44_277
*1318 FILLER_44_289
*1319 FILLER_44_29
*1320 FILLER_44_297
*1321 FILLER_44_3
*1322 FILLER_44_38
*1323 FILLER_44_50
*1324 FILLER_44_62
*1325 FILLER_44_74
*1326 FILLER_44_82
*1327 FILLER_44_85
*1328 FILLER_44_97
*1329 FILLER_45_105
*1330 FILLER_45_111
*1331 FILLER_45_113
*1332 FILLER_45_125
*1333 FILLER_45_137
*1334 FILLER_45_149
*1335 FILLER_45_161
*1336 FILLER_45_167
*1337 FILLER_45_169
*1338 FILLER_45_181
*1339 FILLER_45_193
*1340 FILLER_45_205
*1341 FILLER_45_217
*1342 FILLER_45_223
*1343 FILLER_45_225
*1344 FILLER_45_237
*1345 FILLER_45_249
*1346 FILLER_45_261
*1347 FILLER_45_273
*1348 FILLER_45_279
*1349 FILLER_45_281
*1350 FILLER_45_293
*1351 FILLER_45_3
*1352 FILLER_45_31
*1353 FILLER_45_40
*1354 FILLER_45_52
*1355 FILLER_45_57
*1356 FILLER_45_69
*1357 FILLER_45_81
*1358 FILLER_45_93
*1359 FILLER_46_109
*1360 FILLER_46_121
*1361 FILLER_46_133
*1362 FILLER_46_139
*1363 FILLER_46_141
*1364 FILLER_46_153
*1365 FILLER_46_165
*1366 FILLER_46_177
*1367 FILLER_46_189
*1368 FILLER_46_195
*1369 FILLER_46_197
*1370 FILLER_46_209
*1371 FILLER_46_221
*1372 FILLER_46_233
*1373 FILLER_46_245
*1374 FILLER_46_25
*1375 FILLER_46_251
*1376 FILLER_46_253
*1377 FILLER_46_265
*1378 FILLER_46_277
*1379 FILLER_46_289
*1380 FILLER_46_29
*1381 FILLER_46_297
*1382 FILLER_46_3
*1383 FILLER_46_35
*1384 FILLER_46_42
*1385 FILLER_46_54
*1386 FILLER_46_66
*1387 FILLER_46_78
*1388 FILLER_46_85
*1389 FILLER_46_97
*1390 FILLER_47_105
*1391 FILLER_47_111
*1392 FILLER_47_113
*1393 FILLER_47_125
*1394 FILLER_47_137
*1395 FILLER_47_149
*1396 FILLER_47_161
*1397 FILLER_47_167
*1398 FILLER_47_169
*1399 FILLER_47_181
*1400 FILLER_47_193
*1401 FILLER_47_205
*1402 FILLER_47_217
*1403 FILLER_47_223
*1404 FILLER_47_225
*1405 FILLER_47_237
*1406 FILLER_47_249
*1407 FILLER_47_261
*1408 FILLER_47_273
*1409 FILLER_47_279
*1410 FILLER_47_281
*1411 FILLER_47_29
*1412 FILLER_47_293
*1413 FILLER_47_3
*1414 FILLER_47_37
*1415 FILLER_47_44
*1416 FILLER_47_57
*1417 FILLER_47_69
*1418 FILLER_47_81
*1419 FILLER_47_93
*1420 FILLER_48_109
*1421 FILLER_48_121
*1422 FILLER_48_133
*1423 FILLER_48_139
*1424 FILLER_48_14
*1425 FILLER_48_141
*1426 FILLER_48_153
*1427 FILLER_48_165
*1428 FILLER_48_177
*1429 FILLER_48_189
*1430 FILLER_48_195
*1431 FILLER_48_197
*1432 FILLER_48_209
*1433 FILLER_48_221
*1434 FILLER_48_233
*1435 FILLER_48_245
*1436 FILLER_48_25
*1437 FILLER_48_251
*1438 FILLER_48_253
*1439 FILLER_48_265
*1440 FILLER_48_277
*1441 FILLER_48_289
*1442 FILLER_48_29
*1443 FILLER_48_297
*1444 FILLER_48_3
*1445 FILLER_48_37
*1446 FILLER_48_45
*1447 FILLER_48_57
*1448 FILLER_48_69
*1449 FILLER_48_81
*1450 FILLER_48_85
*1451 FILLER_48_97
*1452 FILLER_49_105
*1453 FILLER_49_111
*1454 FILLER_49_113
*1455 FILLER_49_125
*1456 FILLER_49_137
*1457 FILLER_49_149
*1458 FILLER_49_161
*1459 FILLER_49_167
*1460 FILLER_49_169
*1461 FILLER_49_181
*1462 FILLER_49_193
*1463 FILLER_49_205
*1464 FILLER_49_217
*1465 FILLER_49_223
*1466 FILLER_49_225
*1467 FILLER_49_237
*1468 FILLER_49_249
*1469 FILLER_49_261
*1470 FILLER_49_273
*1471 FILLER_49_279
*1472 FILLER_49_281
*1473 FILLER_49_293
*1474 FILLER_49_3
*1475 FILLER_49_31
*1476 FILLER_49_40
*1477 FILLER_49_52
*1478 FILLER_49_57
*1479 FILLER_49_69
*1480 FILLER_49_81
*1481 FILLER_49_93
*1482 FILLER_4_109
*1483 FILLER_4_121
*1484 FILLER_4_133
*1485 FILLER_4_139
*1486 FILLER_4_141
*1487 FILLER_4_15
*1488 FILLER_4_153
*1489 FILLER_4_165
*1490 FILLER_4_177
*1491 FILLER_4_189
*1492 FILLER_4_195
*1493 FILLER_4_197
*1494 FILLER_4_209
*1495 FILLER_4_221
*1496 FILLER_4_233
*1497 FILLER_4_245
*1498 FILLER_4_251
*1499 FILLER_4_253
*1500 FILLER_4_265
*1501 FILLER_4_27
*1502 FILLER_4_277
*1503 FILLER_4_289
*1504 FILLER_4_29
*1505 FILLER_4_297
*1506 FILLER_4_3
*1507 FILLER_4_41
*1508 FILLER_4_53
*1509 FILLER_4_65
*1510 FILLER_4_77
*1511 FILLER_4_83
*1512 FILLER_4_85
*1513 FILLER_4_97
*1514 FILLER_50_109
*1515 FILLER_50_121
*1516 FILLER_50_133
*1517 FILLER_50_139
*1518 FILLER_50_141
*1519 FILLER_50_153
*1520 FILLER_50_165
*1521 FILLER_50_177
*1522 FILLER_50_189
*1523 FILLER_50_195
*1524 FILLER_50_197
*1525 FILLER_50_209
*1526 FILLER_50_221
*1527 FILLER_50_233
*1528 FILLER_50_245
*1529 FILLER_50_25
*1530 FILLER_50_251
*1531 FILLER_50_253
*1532 FILLER_50_265
*1533 FILLER_50_277
*1534 FILLER_50_289
*1535 FILLER_50_29
*1536 FILLER_50_297
*1537 FILLER_50_3
*1538 FILLER_50_41
*1539 FILLER_50_53
*1540 FILLER_50_65
*1541 FILLER_50_77
*1542 FILLER_50_83
*1543 FILLER_50_85
*1544 FILLER_50_97
*1545 FILLER_51_105
*1546 FILLER_51_111
*1547 FILLER_51_113
*1548 FILLER_51_125
*1549 FILLER_51_137
*1550 FILLER_51_149
*1551 FILLER_51_161
*1552 FILLER_51_167
*1553 FILLER_51_169
*1554 FILLER_51_181
*1555 FILLER_51_193
*1556 FILLER_51_205
*1557 FILLER_51_217
*1558 FILLER_51_223
*1559 FILLER_51_225
*1560 FILLER_51_237
*1561 FILLER_51_249
*1562 FILLER_51_25
*1563 FILLER_51_261
*1564 FILLER_51_273
*1565 FILLER_51_279
*1566 FILLER_51_281
*1567 FILLER_51_293
*1568 FILLER_51_3
*1569 FILLER_51_37
*1570 FILLER_51_49
*1571 FILLER_51_55
*1572 FILLER_51_57
*1573 FILLER_51_69
*1574 FILLER_51_81
*1575 FILLER_51_93
*1576 FILLER_52_109
*1577 FILLER_52_121
*1578 FILLER_52_133
*1579 FILLER_52_139
*1580 FILLER_52_14
*1581 FILLER_52_141
*1582 FILLER_52_153
*1583 FILLER_52_165
*1584 FILLER_52_177
*1585 FILLER_52_189
*1586 FILLER_52_195
*1587 FILLER_52_197
*1588 FILLER_52_209
*1589 FILLER_52_221
*1590 FILLER_52_233
*1591 FILLER_52_245
*1592 FILLER_52_251
*1593 FILLER_52_253
*1594 FILLER_52_26
*1595 FILLER_52_265
*1596 FILLER_52_277
*1597 FILLER_52_289