*SPEF "ieee 1481-1999"
*DESIGN "user_module_362886316051042305"
*DATE "11:11:11 Fri 11 11, 1111"
*VENDOR "OpenRCX"
*PROGRAM "Parallel Extraction"
*VERSION "1.0"
*DESIGN_FLOW "NAME_SCOPE LOCAL" "PIN_CAP NONE"
*DIVIDER /
*DELIMITER :
*BUS_DELIMITER []
*T_UNIT 1 NS
*C_UNIT 1 PF
*R_UNIT 1 OHM
*L_UNIT 1 HENRY

*NAME_MAP
*1 io_in[0]
*2 io_in[1]
*3 io_in[2]
*4 io_in[3]
*5 io_in[4]
*6 io_in[5]
*7 io_in[6]
*8 io_in[7]
*9 io_out[0]
*10 io_out[1]
*11 io_out[2]
*12 io_out[3]
*13 io_out[4]
*14 io_out[5]
*15 io_out[6]
*16 io_out[7]
*19 _00_
*20 _01_
*21 _02_
*22 _03_
*23 _04_
*24 _05_
*25 _06_
*26 _07_
*27 _08_
*28 _09_
*29 _10_
*30 _11_
*31 _12_
*32 _13_
*33 _14_
*34 _15_
*35 _16_
*36 _17_
*37 _18_
*38 _19_
*39 _20_
*40 _21_
*41 _22_
*42 and18\.a
*43 and19\.a
*44 and2\.a
*45 and20\.a
*46 and21\.a
*47 and22\.a
*48 and23\.a
*49 and24\.a
*50 and25\.a
*51 and30\.a
*52 and31\.a
*53 and32\.a
*54 and33\.b
*55 and33\.out
*56 and34\.out
*57 and35\.out
*58 and36\.out
*59 clknet_0_and25\.a
*60 clknet_0_and30\.a
*61 clknet_0_and31\.a
*62 clknet_0_and32\.a
*63 clknet_0_io_in[0]
*64 clknet_1_0__leaf_and25\.a
*65 clknet_1_0__leaf_and30\.a
*66 clknet_1_0__leaf_and31\.a
*67 clknet_1_0__leaf_and32\.a
*68 clknet_1_0__leaf_io_in[0]
*69 clknet_1_1__leaf_and25\.a
*70 clknet_1_1__leaf_and30\.a
*71 clknet_1_1__leaf_and31\.a
*72 clknet_1_1__leaf_and32\.a
*73 clknet_1_1__leaf_io_in[0]
*74 net1
*75 net2
*76 net3
*77 net4
*78 net5
*79 net6
*80 net7
*81 or3\.out
*82 or6\.out
*83 or9\.out
*84 FILLER_0_108
*85 FILLER_0_113
*86 FILLER_0_125
*87 FILLER_0_137
*88 FILLER_0_141
*89 FILLER_0_153
*90 FILLER_0_165
*91 FILLER_0_169
*92 FILLER_0_181
*93 FILLER_0_193
*94 FILLER_0_197
*95 FILLER_0_209
*96 FILLER_0_221
*97 FILLER_0_225
*98 FILLER_0_237
*99 FILLER_0_249
*100 FILLER_0_253
*101 FILLER_0_26
*102 FILLER_0_265
*103 FILLER_0_277
*104 FILLER_0_281
*105 FILLER_0_29
*106 FILLER_0_293
*107 FILLER_0_3
*108 FILLER_0_51
*109 FILLER_0_55
*110 FILLER_0_57
*111 FILLER_0_79
*112 FILLER_0_83
*113 FILLER_0_85
*114 FILLER_0_96
*115 FILLER_10_109
*116 FILLER_10_121
*117 FILLER_10_133
*118 FILLER_10_139
*119 FILLER_10_141
*120 FILLER_10_15
*121 FILLER_10_153
*122 FILLER_10_165
*123 FILLER_10_177
*124 FILLER_10_189
*125 FILLER_10_195
*126 FILLER_10_197
*127 FILLER_10_209
*128 FILLER_10_221
*129 FILLER_10_233
*130 FILLER_10_245
*131 FILLER_10_251
*132 FILLER_10_253
*133 FILLER_10_265
*134 FILLER_10_27
*135 FILLER_10_277
*136 FILLER_10_289
*137 FILLER_10_29
*138 FILLER_10_297
*139 FILLER_10_3
*140 FILLER_10_41
*141 FILLER_10_53
*142 FILLER_10_65
*143 FILLER_10_77
*144 FILLER_10_83
*145 FILLER_10_85
*146 FILLER_10_97
*147 FILLER_11_105
*148 FILLER_11_111
*149 FILLER_11_113
*150 FILLER_11_125
*151 FILLER_11_137
*152 FILLER_11_149
*153 FILLER_11_15
*154 FILLER_11_161
*155 FILLER_11_167
*156 FILLER_11_169
*157 FILLER_11_181
*158 FILLER_11_193
*159 FILLER_11_205
*160 FILLER_11_217
*161 FILLER_11_223
*162 FILLER_11_225
*163 FILLER_11_237
*164 FILLER_11_249
*165 FILLER_11_261
*166 FILLER_11_27
*167 FILLER_11_273
*168 FILLER_11_279
*169 FILLER_11_281
*170 FILLER_11_293
*171 FILLER_11_3
*172 FILLER_11_39
*173 FILLER_11_51
*174 FILLER_11_55
*175 FILLER_11_57
*176 FILLER_11_69
*177 FILLER_11_81
*178 FILLER_11_93
*179 FILLER_12_109
*180 FILLER_12_121
*181 FILLER_12_133
*182 FILLER_12_139
*183 FILLER_12_141
*184 FILLER_12_153
*185 FILLER_12_165
*186 FILLER_12_177
*187 FILLER_12_189
*188 FILLER_12_195
*189 FILLER_12_197
*190 FILLER_12_20
*191 FILLER_12_209
*192 FILLER_12_221
*193 FILLER_12_233
*194 FILLER_12_245
*195 FILLER_12_251
*196 FILLER_12_253
*197 FILLER_12_265
*198 FILLER_12_277
*199 FILLER_12_289
*200 FILLER_12_29
*201 FILLER_12_297
*202 FILLER_12_3
*203 FILLER_12_41
*204 FILLER_12_53
*205 FILLER_12_65
*206 FILLER_12_77
*207 FILLER_12_8
*208 FILLER_12_83
*209 FILLER_12_85
*210 FILLER_12_97
*211 FILLER_13_105
*212 FILLER_13_111
*213 FILLER_13_113
*214 FILLER_13_125
*215 FILLER_13_137
*216 FILLER_13_149
*217 FILLER_13_15
*218 FILLER_13_161
*219 FILLER_13_167
*220 FILLER_13_169
*221 FILLER_13_181
*222 FILLER_13_193
*223 FILLER_13_205
*224 FILLER_13_217
*225 FILLER_13_223
*226 FILLER_13_225
*227 FILLER_13_237
*228 FILLER_13_249
*229 FILLER_13_261
*230 FILLER_13_27
*231 FILLER_13_273
*232 FILLER_13_279
*233 FILLER_13_281
*234 FILLER_13_293
*235 FILLER_13_3
*236 FILLER_13_39
*237 FILLER_13_51
*238 FILLER_13_55
*239 FILLER_13_57
*240 FILLER_13_69
*241 FILLER_13_81
*242 FILLER_13_93
*243 FILLER_14_109
*244 FILLER_14_121
*245 FILLER_14_133
*246 FILLER_14_139
*247 FILLER_14_141
*248 FILLER_14_15
*249 FILLER_14_153
*250 FILLER_14_165
*251 FILLER_14_177
*252 FILLER_14_189
*253 FILLER_14_195
*254 FILLER_14_197
*255 FILLER_14_209
*256 FILLER_14_221
*257 FILLER_14_233
*258 FILLER_14_245
*259 FILLER_14_251
*260 FILLER_14_253
*261 FILLER_14_265
*262 FILLER_14_27
*263 FILLER_14_277
*264 FILLER_14_289
*265 FILLER_14_29
*266 FILLER_14_297
*267 FILLER_14_3
*268 FILLER_14_41
*269 FILLER_14_53
*270 FILLER_14_65
*271 FILLER_14_77
*272 FILLER_14_83
*273 FILLER_14_85
*274 FILLER_14_97
*275 FILLER_15_105
*276 FILLER_15_111
*277 FILLER_15_113
*278 FILLER_15_125
*279 FILLER_15_137
*280 FILLER_15_149
*281 FILLER_15_15
*282 FILLER_15_161
*283 FILLER_15_167
*284 FILLER_15_169
*285 FILLER_15_181
*286 FILLER_15_193
*287 FILLER_15_205
*288 FILLER_15_217
*289 FILLER_15_223
*290 FILLER_15_225
*291 FILLER_15_237
*292 FILLER_15_249
*293 FILLER_15_261
*294 FILLER_15_27
*295 FILLER_15_273
*296 FILLER_15_279
*297 FILLER_15_281
*298 FILLER_15_293
*299 FILLER_15_3
*300 FILLER_15_39
*301 FILLER_15_51
*302 FILLER_15_55
*303 FILLER_15_57
*304 FILLER_15_69
*305 FILLER_15_81
*306 FILLER_15_93
*307 FILLER_16_109
*308 FILLER_16_121
*309 FILLER_16_133
*310 FILLER_16_139
*311 FILLER_16_141
*312 FILLER_16_153
*313 FILLER_16_165
*314 FILLER_16_177
*315 FILLER_16_189
*316 FILLER_16_195
*317 FILLER_16_197
*318 FILLER_16_20
*319 FILLER_16_209
*320 FILLER_16_221
*321 FILLER_16_233
*322 FILLER_16_245
*323 FILLER_16_251
*324 FILLER_16_253
*325 FILLER_16_265
*326 FILLER_16_277
*327 FILLER_16_289
*328 FILLER_16_29
*329 FILLER_16_297
*330 FILLER_16_3
*331 FILLER_16_41
*332 FILLER_16_53
*333 FILLER_16_65
*334 FILLER_16_77
*335 FILLER_16_8
*336 FILLER_16_83
*337 FILLER_16_85
*338 FILLER_16_97
*339 FILLER_17_105
*340 FILLER_17_111
*341 FILLER_17_113
*342 FILLER_17_125
*343 FILLER_17_137
*344 FILLER_17_149
*345 FILLER_17_15
*346 FILLER_17_161
*347 FILLER_17_167
*348 FILLER_17_169
*349 FILLER_17_181
*350 FILLER_17_193
*351 FILLER_17_205
*352 FILLER_17_217
*353 FILLER_17_223
*354 FILLER_17_225
*355 FILLER_17_237
*356 FILLER_17_249
*357 FILLER_17_261
*358 FILLER_17_27
*359 FILLER_17_273
*360 FILLER_17_279
*361 FILLER_17_281
*362 FILLER_17_293
*363 FILLER_17_3
*364 FILLER_17_39
*365 FILLER_17_51
*366 FILLER_17_55
*367 FILLER_17_57
*368 FILLER_17_69
*369 FILLER_17_81
*370 FILLER_17_93
*371 FILLER_18_109
*372 FILLER_18_121
*373 FILLER_18_133
*374 FILLER_18_139
*375 FILLER_18_141
*376 FILLER_18_15
*377 FILLER_18_153
*378 FILLER_18_165
*379 FILLER_18_177
*380 FILLER_18_189
*381 FILLER_18_195
*382 FILLER_18_197
*383 FILLER_18_209
*384 FILLER_18_221
*385 FILLER_18_233
*386 FILLER_18_245
*387 FILLER_18_251
*388 FILLER_18_253
*389 FILLER_18_265
*390 FILLER_18_27
*391 FILLER_18_277
*392 FILLER_18_289
*393 FILLER_18_29
*394 FILLER_18_297
*395 FILLER_18_3
*396 FILLER_18_41
*397 FILLER_18_53
*398 FILLER_18_65
*399 FILLER_18_77
*400 FILLER_18_83
*401 FILLER_18_85
*402 FILLER_18_97
*403 FILLER_19_105
*404 FILLER_19_111
*405 FILLER_19_113
*406 FILLER_19_12
*407 FILLER_19_125
*408 FILLER_19_137
*409 FILLER_19_149
*410 FILLER_19_161
*411 FILLER_19_167
*412 FILLER_19_169
*413 FILLER_19_181
*414 FILLER_19_193
*415 FILLER_19_205
*416 FILLER_19_217
*417 FILLER_19_223
*418 FILLER_19_225
*419 FILLER_19_237
*420 FILLER_19_24
*421 FILLER_19_249
*422 FILLER_19_261
*423 FILLER_19_273
*424 FILLER_19_279
*425 FILLER_19_281
*426 FILLER_19_293
*427 FILLER_19_3
*428 FILLER_19_36
*429 FILLER_19_48
*430 FILLER_19_57
*431 FILLER_19_69
*432 FILLER_19_81
*433 FILLER_19_93
*434 FILLER_1_103
*435 FILLER_1_111
*436 FILLER_1_113
*437 FILLER_1_12
*438 FILLER_1_125
*439 FILLER_1_137
*440 FILLER_1_149
*441 FILLER_1_161
*442 FILLER_1_167
*443 FILLER_1_169
*444 FILLER_1_181
*445 FILLER_1_193
*446 FILLER_1_205
*447 FILLER_1_217
*448 FILLER_1_223
*449 FILLER_1_225
*450 FILLER_1_237
*451 FILLER_1_249
*452 FILLER_1_261
*453 FILLER_1_273
*454 FILLER_1_279
*455 FILLER_1_281
*456 FILLER_1_293
*457 FILLER_1_3
*458 FILLER_1_36
*459 FILLER_1_49
*460 FILLER_1_55
*461 FILLER_1_57
*462 FILLER_1_79
*463 FILLER_1_91
*464 FILLER_20_109
*465 FILLER_20_121
*466 FILLER_20_133
*467 FILLER_20_139
*468 FILLER_20_141
*469 FILLER_20_15
*470 FILLER_20_153
*471 FILLER_20_165
*472 FILLER_20_177
*473 FILLER_20_189
*474 FILLER_20_195
*475 FILLER_20_197
*476 FILLER_20_209
*477 FILLER_20_221
*478 FILLER_20_233
*479 FILLER_20_245
*480 FILLER_20_251
*481 FILLER_20_253
*482 FILLER_20_265
*483 FILLER_20_27
*484 FILLER_20_277
*485 FILLER_20_289
*486 FILLER_20_29
*487 FILLER_20_297
*488 FILLER_20_3
*489 FILLER_20_41
*490 FILLER_20_53
*491 FILLER_20_65
*492 FILLER_20_77
*493 FILLER_20_83
*494 FILLER_20_85
*495 FILLER_20_97
*496 FILLER_21_105
*497 FILLER_21_111
*498 FILLER_21_113
*499 FILLER_21_125
*500 FILLER_21_137
*501 FILLER_21_149
*502 FILLER_21_161
*503 FILLER_21_167
*504 FILLER_21_169
*505 FILLER_21_18
*506 FILLER_21_181
*507 FILLER_21_193
*508 FILLER_21_205
*509 FILLER_21_217
*510 FILLER_21_223
*511 FILLER_21_225
*512 FILLER_21_237
*513 FILLER_21_249
*514 FILLER_21_26
*515 FILLER_21_261
*516 FILLER_21_273
*517 FILLER_21_279
*518 FILLER_21_281
*519 FILLER_21_293
*520 FILLER_21_3
*521 FILLER_21_38
*522 FILLER_21_50
*523 FILLER_21_57
*524 FILLER_21_69
*525 FILLER_21_81
*526 FILLER_21_93
*527 FILLER_22_109
*528 FILLER_22_121
*529 FILLER_22_133
*530 FILLER_22_139
*531 FILLER_22_14
*532 FILLER_22_141
*533 FILLER_22_153
*534 FILLER_22_165
*535 FILLER_22_177
*536 FILLER_22_189
*537 FILLER_22_195
*538 FILLER_22_197
*539 FILLER_22_209
*540 FILLER_22_221
*541 FILLER_22_23
*542 FILLER_22_233
*543 FILLER_22_245
*544 FILLER_22_251
*545 FILLER_22_253
*546 FILLER_22_265
*547 FILLER_22_27
*548 FILLER_22_277
*549 FILLER_22_289
*550 FILLER_22_29
*551 FILLER_22_297
*552 FILLER_22_3
*553 FILLER_22_41
*554 FILLER_22_53
*555 FILLER_22_65
*556 FILLER_22_77
*557 FILLER_22_83
*558 FILLER_22_85
*559 FILLER_22_97
*560 FILLER_23_105
*561 FILLER_23_111
*562 FILLER_23_113
*563 FILLER_23_125
*564 FILLER_23_137
*565 FILLER_23_149
*566 FILLER_23_161
*567 FILLER_23_167
*568 FILLER_23_169
*569 FILLER_23_17
*570 FILLER_23_181
*571 FILLER_23_193
*572 FILLER_23_205
*573 FILLER_23_217
*574 FILLER_23_223
*575 FILLER_23_225
*576 FILLER_23_237
*577 FILLER_23_249
*578 FILLER_23_25
*579 FILLER_23_261
*580 FILLER_23_273
*581 FILLER_23_279
*582 FILLER_23_281
*583 FILLER_23_293
*584 FILLER_23_3
*585 FILLER_23_37
*586 FILLER_23_49
*587 FILLER_23_55
*588 FILLER_23_57
*589 FILLER_23_69
*590 FILLER_23_7
*591 FILLER_23_81
*592 FILLER_23_93
*593 FILLER_24_109
*594 FILLER_24_121
*595 FILLER_24_133
*596 FILLER_24_139
*597 FILLER_24_141
*598 FILLER_24_153
*599 FILLER_24_165
*600 FILLER_24_177
*601 FILLER_24_189
*602 FILLER_24_195
*603 FILLER_24_197
*604 FILLER_24_20
*605 FILLER_24_209
*606 FILLER_24_221
*607 FILLER_24_233
*608 FILLER_24_245
*609 FILLER_24_251
*610 FILLER_24_253
*611 FILLER_24_265
*612 FILLER_24_277
*613 FILLER_24_289
*614 FILLER_24_29
*615 FILLER_24_297
*616 FILLER_24_3
*617 FILLER_24_40
*618 FILLER_24_52
*619 FILLER_24_64
*620 FILLER_24_76
*621 FILLER_24_85
*622 FILLER_24_97
*623 FILLER_25_105
*624 FILLER_25_111
*625 FILLER_25_113
*626 FILLER_25_125
*627 FILLER_25_137
*628 FILLER_25_14
*629 FILLER_25_149
*630 FILLER_25_161
*631 FILLER_25_167
*632 FILLER_25_169
*633 FILLER_25_181
*634 FILLER_25_193
*635 FILLER_25_205
*636 FILLER_25_217
*637 FILLER_25_223
*638 FILLER_25_225
*639 FILLER_25_237
*640 FILLER_25_249
*641 FILLER_25_261
*642 FILLER_25_27
*643 FILLER_25_273
*644 FILLER_25_279
*645 FILLER_25_281
*646 FILLER_25_293
*647 FILLER_25_3
*648 FILLER_25_39
*649 FILLER_25_51
*650 FILLER_25_55
*651 FILLER_25_57
*652 FILLER_25_69
*653 FILLER_25_81
*654 FILLER_25_93
*655 FILLER_26_109
*656 FILLER_26_121
*657 FILLER_26_133
*658 FILLER_26_139
*659 FILLER_26_14
*660 FILLER_26_141
*661 FILLER_26_153
*662 FILLER_26_165
*663 FILLER_26_177
*664 FILLER_26_189
*665 FILLER_26_195
*666 FILLER_26_197
*667 FILLER_26_209
*668 FILLER_26_221
*669 FILLER_26_233
*670 FILLER_26_245
*671 FILLER_26_251
*672 FILLER_26_253
*673 FILLER_26_26
*674 FILLER_26_265
*675 FILLER_26_277
*676 FILLER_26_289
*677 FILLER_26_29
*678 FILLER_26_297
*679 FILLER_26_3
*680 FILLER_26_41
*681 FILLER_26_53
*682 FILLER_26_65
*683 FILLER_26_77
*684 FILLER_26_83
*685 FILLER_26_85
*686 FILLER_26_97
*687 FILLER_27_105
*688 FILLER_27_111
*689 FILLER_27_113
*690 FILLER_27_125
*691 FILLER_27_137
*692 FILLER_27_149
*693 FILLER_27_16
*694 FILLER_27_161
*695 FILLER_27_167
*696 FILLER_27_169
*697 FILLER_27_181
*698 FILLER_27_193
*699 FILLER_27_205
*700 FILLER_27_217
*701 FILLER_27_223
*702 FILLER_27_225
*703 FILLER_27_237
*704 FILLER_27_24
*705 FILLER_27_249
*706 FILLER_27_261
*707 FILLER_27_273
*708 FILLER_27_279
*709 FILLER_27_281
*710 FILLER_27_293
*711 FILLER_27_3
*712 FILLER_27_46
*713 FILLER_27_54
*714 FILLER_27_57
*715 FILLER_27_69
*716 FILLER_27_81
*717 FILLER_27_9
*718 FILLER_27_93
*719 FILLER_28_109
*720 FILLER_28_121
*721 FILLER_28_133
*722 FILLER_28_139
*723 FILLER_28_14
*724 FILLER_28_141
*725 FILLER_28_153
*726 FILLER_28_165
*727 FILLER_28_177
*728 FILLER_28_18
*729 FILLER_28_189
*730 FILLER_28_195
*731 FILLER_28_197
*732 FILLER_28_209
*733 FILLER_28_22
*734 FILLER_28_221
*735 FILLER_28_233
*736 FILLER_28_245
*737 FILLER_28_251
*738 FILLER_28_253
*739 FILLER_28_265
*740 FILLER_28_277
*741 FILLER_28_289
*742 FILLER_28_29
*743 FILLER_28_297
*744 FILLER_28_3
*745 FILLER_28_41
*746 FILLER_28_53
*747 FILLER_28_65
*748 FILLER_28_77
*749 FILLER_28_83
*750 FILLER_28_85
*751 FILLER_28_97
*752 FILLER_29_105
*753 FILLER_29_111
*754 FILLER_29_113
*755 FILLER_29_125
*756 FILLER_29_137
*757 FILLER_29_14
*758 FILLER_29_149
*759 FILLER_29_161
*760 FILLER_29_167
*761 FILLER_29_169
*762 FILLER_29_181
*763 FILLER_29_193
*764 FILLER_29_205
*765 FILLER_29_21
*766 FILLER_29_217
*767 FILLER_29_223
*768 FILLER_29_225
*769 FILLER_29_237
*770 FILLER_29_249
*771 FILLER_29_261
*772 FILLER_29_273
*773 FILLER_29_279
*774 FILLER_29_28
*775 FILLER_29_281
*776 FILLER_29_293
*777 FILLER_29_3
*778 FILLER_29_34
*779 FILLER_29_38
*780 FILLER_29_45
*781 FILLER_29_53
*782 FILLER_29_57
*783 FILLER_29_69
*784 FILLER_29_81
*785 FILLER_29_93
*786 FILLER_2_109
*787 FILLER_2_121
*788 FILLER_2_133
*789 FILLER_2_139
*790 FILLER_2_141
*791 FILLER_2_153
*792 FILLER_2_165
*793 FILLER_2_177
*794 FILLER_2_189
*795 FILLER_2_195
*796 FILLER_2_197
*797 FILLER_2_209
*798 FILLER_2_221
*799 FILLER_2_233
*800 FILLER_2_245
*801 FILLER_2_251
*802 FILLER_2_253
*803 FILLER_2_26
*804 FILLER_2_265
*805 FILLER_2_277
*806 FILLER_2_289
*807 FILLER_2_29
*808 FILLER_2_297
*809 FILLER_2_3
*810 FILLER_2_51
*811 FILLER_2_75
*812 FILLER_2_83
*813 FILLER_2_85
*814 FILLER_2_97
*815 FILLER_30_109
*816 FILLER_30_11
*817 FILLER_30_121
*818 FILLER_30_133
*819 FILLER_30_139
*820 FILLER_30_141
*821 FILLER_30_153
*822 FILLER_30_165
*823 FILLER_30_177
*824 FILLER_30_18
*825 FILLER_30_189
*826 FILLER_30_195
*827 FILLER_30_197
*828 FILLER_30_209
*829 FILLER_30_221
*830 FILLER_30_233
*831 FILLER_30_245
*832 FILLER_30_25
*833 FILLER_30_251
*834 FILLER_30_253
*835 FILLER_30_265
*836 FILLER_30_277
*837 FILLER_30_289
*838 FILLER_30_29
*839 FILLER_30_297
*840 FILLER_30_3
*841 FILLER_30_52
*842 FILLER_30_64
*843 FILLER_30_76
*844 FILLER_30_85
*845 FILLER_30_97
*846 FILLER_31_10
*847 FILLER_31_105
*848 FILLER_31_111
*849 FILLER_31_113
*850 FILLER_31_125
*851 FILLER_31_137
*852 FILLER_31_149
*853 FILLER_31_161
*854 FILLER_31_167
*855 FILLER_31_169
*856 FILLER_31_17
*857 FILLER_31_181
*858 FILLER_31_193
*859 FILLER_31_205
*860 FILLER_31_217
*861 FILLER_31_223
*862 FILLER_31_225
*863 FILLER_31_237
*864 FILLER_31_24
*865 FILLER_31_249
*866 FILLER_31_261
*867 FILLER_31_273
*868 FILLER_31_279
*869 FILLER_31_281
*870 FILLER_31_293
*871 FILLER_31_3
*872 FILLER_31_36
*873 FILLER_31_48
*874 FILLER_31_57
*875 FILLER_31_69
*876 FILLER_31_81
*877 FILLER_31_93
*878 FILLER_32_10
*879 FILLER_32_109
*880 FILLER_32_121
*881 FILLER_32_133
*882 FILLER_32_139
*883 FILLER_32_141
*884 FILLER_32_153
*885 FILLER_32_165
*886 FILLER_32_177
*887 FILLER_32_189
*888 FILLER_32_195
*889 FILLER_32_197
*890 FILLER_32_209
*891 FILLER_32_22
*892 FILLER_32_221
*893 FILLER_32_233
*894 FILLER_32_245
*895 FILLER_32_251
*896 FILLER_32_253
*897 FILLER_32_26
*898 FILLER_32_265
*899 FILLER_32_277
*900 FILLER_32_289
*901 FILLER_32_29
*902 FILLER_32_297
*903 FILLER_32_3
*904 FILLER_32_36
*905 FILLER_32_48
*906 FILLER_32_60
*907 FILLER_32_72
*908 FILLER_32_85
*909 FILLER_32_97
*910 FILLER_33_105
*911 FILLER_33_111
*912 FILLER_33_113
*913 FILLER_33_125
*914 FILLER_33_137
*915 FILLER_33_149
*916 FILLER_33_16
*917 FILLER_33_161
*918 FILLER_33_167
*919 FILLER_33_169
*920 FILLER_33_181
*921 FILLER_33_193
*922 FILLER_33_205
*923 FILLER_33_217
*924 FILLER_33_223
*925 FILLER_33_225
*926 FILLER_33_23
*927 FILLER_33_237
*928 FILLER_33_249
*929 FILLER_33_261
*930 FILLER_33_273
*931 FILLER_33_279
*932 FILLER_33_281
*933 FILLER_33_293
*934 FILLER_33_3
*935 FILLER_33_35
*936 FILLER_33_47
*937 FILLER_33_55
*938 FILLER_33_57
*939 FILLER_33_69
*940 FILLER_33_81
*941 FILLER_33_93
*942 FILLER_34_10
*943 FILLER_34_109
*944 FILLER_34_121
*945 FILLER_34_133
*946 FILLER_34_139
*947 FILLER_34_141
*948 FILLER_34_153
*949 FILLER_34_165
*950 FILLER_34_177
*951 FILLER_34_189
*952 FILLER_34_195
*953 FILLER_34_197
*954 FILLER_34_209
*955 FILLER_34_22
*956 FILLER_34_221
*957 FILLER_34_233
*958 FILLER_34_245
*959 FILLER_34_251
*960 FILLER_34_253
*961 FILLER_34_265
*962 FILLER_34_277
*963 FILLER_34_289
*964 FILLER_34_29
*965 FILLER_34_297
*966 FILLER_34_3
*967 FILLER_34_41
*968 FILLER_34_53
*969 FILLER_34_65
*970 FILLER_34_77
*971 FILLER_34_83
*972 FILLER_34_85
*973 FILLER_34_97
*974 FILLER_35_105
*975 FILLER_35_111
*976 FILLER_35_113
*977 FILLER_35_12
*978 FILLER_35_125
*979 FILLER_35_137
*980 FILLER_35_149
*981 FILLER_35_161
*982 FILLER_35_167
*983 FILLER_35_169
*984 FILLER_35_181
*985 FILLER_35_19
*986 FILLER_35_193
*987 FILLER_35_205
*988 FILLER_35_217
*989 FILLER_35_223
*990 FILLER_35_225
*991 FILLER_35_237
*992 FILLER_35_249
*993 FILLER_35_261
*994 FILLER_35_273
*995 FILLER_35_279
*996 FILLER_35_281
*997 FILLER_35_293
*998 FILLER_35_3
*999 FILLER_35_31
*1000 FILLER_35_43
*1001 FILLER_35_55
*1002 FILLER_35_57
*1003 FILLER_35_69
*1004 FILLER_35_81
*1005 FILLER_35_93
*1006 FILLER_36_109
*1007 FILLER_36_121
*1008 FILLER_36_133
*1009 FILLER_36_139
*1010 FILLER_36_141
*1011 FILLER_36_153
*1012 FILLER_36_165
*1013 FILLER_36_177
*1014 FILLER_36_189
*1015 FILLER_36_195
*1016 FILLER_36_197
*1017 FILLER_36_209
*1018 FILLER_36_21
*1019 FILLER_36_221
*1020 FILLER_36_233
*1021 FILLER_36_245
*1022 FILLER_36_251
*1023 FILLER_36_253
*1024 FILLER_36_265
*1025 FILLER_36_27
*1026 FILLER_36_277
*1027 FILLER_36_289
*1028 FILLER_36_29
*1029 FILLER_36_297
*1030 FILLER_36_3
*1031 FILLER_36_41
*1032 FILLER_36_53
*1033 FILLER_36_65
*1034 FILLER_36_77
*1035 FILLER_36_83
*1036 FILLER_36_85
*1037 FILLER_36_9
*1038 FILLER_36_97
*1039 FILLER_37_105
*1040 FILLER_37_111
*1041 FILLER_37_113
*1042 FILLER_37_12
*1043 FILLER_37_125
*1044 FILLER_37_137
*1045 FILLER_37_149
*1046 FILLER_37_161
*1047 FILLER_37_167
*1048 FILLER_37_169
*1049 FILLER_37_181
*1050 FILLER_37_193
*1051 FILLER_37_205
*1052 FILLER_37_217
*1053 FILLER_37_223
*1054 FILLER_37_225
*1055 FILLER_37_237
*1056 FILLER_37_24
*1057 FILLER_37_249
*1058 FILLER_37_261
*1059 FILLER_37_273
*1060 FILLER_37_279
*1061 FILLER_37_281
*1062 FILLER_37_293
*1063 FILLER_37_3
*1064 FILLER_37_36
*1065 FILLER_37_48
*1066 FILLER_37_57
*1067 FILLER_37_69
*1068 FILLER_37_7
*1069 FILLER_37_81
*1070 FILLER_37_93
*1071 FILLER_38_109
*1072 FILLER_38_121
*1073 FILLER_38_133
*1074 FILLER_38_139
*1075 FILLER_38_141
*1076 FILLER_38_15
*1077 FILLER_38_153
*1078 FILLER_38_165
*1079 FILLER_38_177
*1080 FILLER_38_189
*1081 FILLER_38_195
*1082 FILLER_38_197
*1083 FILLER_38_209
*1084 FILLER_38_221
*1085 FILLER_38_233
*1086 FILLER_38_245
*1087 FILLER_38_251
*1088 FILLER_38_253
*1089 FILLER_38_265
*1090 FILLER_38_27
*1091 FILLER_38_277
*1092 FILLER_38_289
*1093 FILLER_38_29
*1094 FILLER_38_297
*1095 FILLER_38_3
*1096 FILLER_38_41
*1097 FILLER_38_53
*1098 FILLER_38_65
*1099 FILLER_38_77
*1100 FILLER_38_83
*1101 FILLER_38_85
*1102 FILLER_38_97
*1103 FILLER_39_105
*1104 FILLER_39_11
*1105 FILLER_39_111
*1106 FILLER_39_113
*1107 FILLER_39_125
*1108 FILLER_39_137
*1109 FILLER_39_149
*1110 FILLER_39_161
*1111 FILLER_39_167
*1112 FILLER_39_169
*1113 FILLER_39_181
*1114 FILLER_39_193
*1115 FILLER_39_205
*1116 FILLER_39_217
*1117 FILLER_39_223
*1118 FILLER_39_225
*1119 FILLER_39_23
*1120 FILLER_39_237
*1121 FILLER_39_249
*1122 FILLER_39_261
*1123 FILLER_39_273
*1124 FILLER_39_279
*1125 FILLER_39_281
*1126 FILLER_39_293
*1127 FILLER_39_3
*1128 FILLER_39_35
*1129 FILLER_39_47
*1130 FILLER_39_55
*1131 FILLER_39_57
*1132 FILLER_39_69
*1133 FILLER_39_81
*1134 FILLER_39_93
*1135 FILLER_3_104
*1136 FILLER_3_11
*1137 FILLER_3_113
*1138 FILLER_3_125
*1139 FILLER_3_137
*1140 FILLER_3_149
*1141 FILLER_3_161
*1142 FILLER_3_167
*1143 FILLER_3_169
*1144 FILLER_3_181
*1145 FILLER_3_193
*1146 FILLER_3_205
*1147 FILLER_3_217
*1148 FILLER_3_223
*1149 FILLER_3_225
*1150 FILLER_3_237
*1151 FILLER_3_249
*1152 FILLER_3_261
*1153 FILLER_3_273
*1154 FILLER_3_279
*1155 FILLER_3_281
*1156 FILLER_3_293
*1157 FILLER_3_3
*1158 FILLER_3_35
*1159 FILLER_3_48
*1160 FILLER_3_57
*1161 FILLER_3_68
*1162 FILLER_3_7
*1163 FILLER_3_80
*1164 FILLER_3_92
*1165 FILLER_40_109
*1166 FILLER_40_121
*1167 FILLER_40_133
*1168 FILLER_40_139
*1169 FILLER_40_141
*1170 FILLER_40_15
*1171 FILLER_40_153
*1172 FILLER_40_165
*1173 FILLER_40_177
*1174 FILLER_40_189
*1175 FILLER_40_195
*1176 FILLER_40_197
*1177 FILLER_40_209
*1178 FILLER_40_221
*1179 FILLER_40_233
*1180 FILLER_40_245
*1181 FILLER_40_251
*1182 FILLER_40_253
*1183 FILLER_40_265
*1184 FILLER_40_27
*1185 FILLER_40_277
*1186 FILLER_40_289
*1187 FILLER_40_29
*1188 FILLER_40_297
*1189 FILLER_40_3
*1190 FILLER_40_41
*1191 FILLER_40_53
*1192 FILLER_40_65
*1193 FILLER_40_77
*1194 FILLER_40_83
*1195 FILLER_40_85
*1196 FILLER_40_97
*1197 FILLER_41_105
*1198 FILLER_41_111
*1199 FILLER_41_113
*1200 FILLER_41_12
*1201 FILLER_41_125
*1202 FILLER_41_137
*1203 FILLER_41_149
*1204 FILLER_41_161
*1205 FILLER_41_167
*1206 FILLER_41_169
*1207 FILLER_41_181
*1208 FILLER_41_193
*1209 FILLER_41_205
*1210 FILLER_41_217
*1211 FILLER_41_223
*1212 FILLER_41_225
*1213 FILLER_41_237
*1214 FILLER_41_24
*1215 FILLER_41_249
*1216 FILLER_41_261
*1217 FILLER_41_273
*1218 FILLER_41_279
*1219 FILLER_41_281
*1220 FILLER_41_293
*1221 FILLER_41_3
*1222 FILLER_41_36
*1223 FILLER_41_48
*1224 FILLER_41_57
*1225 FILLER_41_69
*1226 FILLER_41_7
*1227 FILLER_41_81
*1228 FILLER_41_93
*1229 FILLER_42_109
*1230 FILLER_42_121
*1231 FILLER_42_133
*1232 FILLER_42_139
*1233 FILLER_42_141
*1234 FILLER_42_15
*1235 FILLER_42_153
*1236 FILLER_42_165
*1237 FILLER_42_177
*1238 FILLER_42_189
*1239 FILLER_42_195
*1240 FILLER_42_197
*1241 FILLER_42_209
*1242 FILLER_42_221
*1243 FILLER_42_233
*1244 FILLER_42_245
*1245 FILLER_42_251
*1246 FILLER_42_253
*1247 FILLER_42_265
*1248 FILLER_42_27
*1249 FILLER_42_277
*1250 FILLER_42_289
*1251 FILLER_42_29
*1252 FILLER_42_297
*1253 FILLER_42_3
*1254 FILLER_42_41
*1255 FILLER_42_53
*1256 FILLER_42_65
*1257 FILLER_42_77
*1258 FILLER_42_83
*1259 FILLER_42_85
*1260 FILLER_42_97
*1261 FILLER_43_105
*1262 FILLER_43_111
*1263 FILLER_43_113
*1264 FILLER_43_12
*1265 FILLER_43_125
*1266 FILLER_43_137
*1267 FILLER_43_149
*1268 FILLER_43_161
*1269 FILLER_43_167
*1270 FILLER_43_169
*1271 FILLER_43_181
*1272 FILLER_43_193
*1273 FILLER_43_205
*1274 FILLER_43_217
*1275 FILLER_43_223
*1276 FILLER_43_225
*1277 FILLER_43_237
*1278 FILLER_43_24
*1279 FILLER_43_249
*1280 FILLER_43_261
*1281 FILLER_43_273
*1282 FILLER_43_279
*1283 FILLER_43_281
*1284 FILLER_43_293
*1285 FILLER_43_3
*1286 FILLER_43_36
*1287 FILLER_43_48
*1288 FILLER_43_57
*1289 FILLER_43_69
*1290 FILLER_43_7
*1291 FILLER_43_81
*1292 FILLER_43_93
*1293 FILLER_44_109
*1294 FILLER_44_11
*1295 FILLER_44_121
*1296 FILLER_44_133
*1297 FILLER_44_139
*1298 FILLER_44_141
*1299 FILLER_44_153
*1300 FILLER_44_165
*1301 FILLER_44_177
*1302 FILLER_44_189
*1303 FILLER_44_195
*1304 FILLER_44_197
*1305 FILLER_44_209
*1306 FILLER_44_221
*1307 FILLER_44_23
*1308 FILLER_44_233
*1309 FILLER_44_245
*1310 FILLER_44_251
*1311 FILLER_44_253
*1312 FILLER_44_265
*1313 FILLER_44_27
*1314 FILLER_44_277
*1315 FILLER_44_289
*1316 FILLER_44_29
*1317 FILLER_44_297
*1318 FILLER_44_3
*1319 FILLER_44_41
*1320 FILLER_44_53
*1321 FILLER_44_65
*1322 FILLER_44_77
*1323 FILLER_44_83
*1324 FILLER_44_85
*1325 FILLER_44_97
*1326 FILLER_45_105
*1327 FILLER_45_11
*1328 FILLER_45_111
*1329 FILLER_45_113
*1330 FILLER_45_125
*1331 FILLER_45_137
*1332 FILLER_45_149
*1333 FILLER_45_161
*1334 FILLER_45_167
*1335 FILLER_45_169
*1336 FILLER_45_181
*1337 FILLER_45_193
*1338 FILLER_45_205
*1339 FILLER_45_217
*1340 FILLER_45_223
*1341 FILLER_45_225
*1342 FILLER_45_23
*1343 FILLER_45_237
*1344 FILLER_45_249
*1345 FILLER_45_261
*1346 FILLER_45_273
*1347 FILLER_45_279
*1348 FILLER_45_281
*1349 FILLER_45_293
*1350 FILLER_45_3
*1351 FILLER_45_35
*1352 FILLER_45_47
*1353 FILLER_45_55
*1354 FILLER_45_57
*1355 FILLER_45_69
*1356 FILLER_45_81
*1357 FILLER_45_93
*1358 FILLER_46_109
*1359 FILLER_46_121
*1360 FILLER_46_133
*1361 FILLER_46_139
*1362 FILLER_46_141
*1363 FILLER_46_15
*1364 FILLER_46_153
*1365 FILLER_46_165
*1366 FILLER_46_177
*1367 FILLER_46_189
*1368 FILLER_46_195
*1369 FILLER_46_197
*1370 FILLER_46_209
*1371 FILLER_46_221
*1372 FILLER_46_233
*1373 FILLER_46_245
*1374 FILLER_46_251
*1375 FILLER_46_253
*1376 FILLER_46_265
*1377 FILLER_46_27
*1378 FILLER_46_277
*1379 FILLER_46_289
*1380 FILLER_46_29
*1381 FILLER_46_297
*1382 FILLER_46_3
*1383 FILLER_46_41
*1384 FILLER_46_53
*1385 FILLER_46_65
*1386 FILLER_46_77
*1387 FILLER_46_83
*1388 FILLER_46_85
*1389 FILLER_46_97
*1390 FILLER_47_105
*1391 FILLER_47_111
*1392 FILLER_47_113
*1393 FILLER_47_125
*1394 FILLER_47_137
*1395 FILLER_47_149
*1396 FILLER_47_15
*1397 FILLER_47_161
*1398 FILLER_47_167
*1399 FILLER_47_169
*1400 FILLER_47_181
*1401 FILLER_47_193
*1402 FILLER_47_205
*1403 FILLER_47_217
*1404 FILLER_47_223
*1405 FILLER_47_225
*1406 FILLER_47_237
*1407 FILLER_47_249
*1408 FILLER_47_261
*1409 FILLER_47_27
*1410 FILLER_47_273
*1411 FILLER_47_279
*1412 FILLER_47_281
*1413 FILLER_47_293
*1414 FILLER_47_3
*1415 FILLER_47_39
*1416 FILLER_47_51
*1417 FILLER_47_55
*1418 FILLER_47_57
*1419 FILLER_47_69
*1420 FILLER_47_81
*1421 FILLER_47_93
*1422 FILLER_48_109
*1423 FILLER_48_121
*1424 FILLER_48_133
*1425 FILLER_48_139
*1426 FILLER_48_141
*1427 FILLER_48_15
*1428 FILLER_48_153
*1429 FILLER_48_165
*1430 FILLER_48_177
*1431 FILLER_48_189
*1432 FILLER_48_195
*1433 FILLER_48_197
*1434 FILLER_48_209
*1435 FILLER_48_221
*1436 FILLER_48_233
*1437 FILLER_48_245
*1438 FILLER_48_251
*1439 FILLER_48_253
*1440 FILLER_48_265
*1441 FILLER_48_27
*1442 FILLER_48_277
*1443 FILLER_48_289
*1444 FILLER_48_29
*1445 FILLER_48_297
*1446 FILLER_48_3
*1447 FILLER_48_41
*1448 FILLER_48_53
*1449 FILLER_48_65
*1450 FILLER_48_77
*1451 FILLER_48_83
*1452 FILLER_48_85
*1453 FILLER_48_97
*1454 FILLER_49_105
*1455 FILLER_49_111
*1456 FILLER_49_113
*1457 FILLER_49_125
*1458 FILLER_49_137
*1459 FILLER_49_149
*1460 FILLER_49_15
*1461 FILLER_49_161
*1462 FILLER_49_167
*1463 FILLER_49_169
*1464 FILLER_49_181
*1465 FILLER_49_193
*1466 FILLER_49_205
*1467 FILLER_49_217
*1468 FILLER_49_223
*1469 FILLER_49_225
*1470 FILLER_49_237
*1471 FILLER_49_249
*1472 FILLER_49_261
*1473 FILLER_49_27
*1474 FILLER_49_273
*1475 FILLER_49_279
*1476 FILLER_49_281
*1477 FILLER_49_293
*1478 FILLER_49_3
*1479 FILLER_49_39
*1480 FILLER_49_51
*1481 FILLER_49_55
*1482 FILLER_49_57
*1483 FILLER_49_69
*1484 FILLER_49_81
*1485 FILLER_49_93
*1486 FILLER_4_109
*1487 FILLER_4_121
*1488 FILLER_4_133
*1489 FILLER_4_139
*1490 FILLER_4_141
*1491 FILLER_4_153
*1492 FILLER_4_165
*1493 FILLER_4_177
*1494 FILLER_4_189
*1495 FILLER_4_195
*1496 FILLER_4_197
*1497 FILLER_4_209
*1498 FILLER_4_221
*1499 FILLER_4_233
*1500 FILLER_4_245
*1501 FILLER_4_251
*1502 FILLER_4_253
*1503 FILLER_4_26
*1504 FILLER_4_265
*1505 FILLER_4_277
*1506 FILLER_4_289
*1507 FILLER_4_29
*1508 FILLER_4_297
*1509 FILLER_4_3
*1510 FILLER_4_51
*1511 FILLER_4_58
*1512 FILLER_4_70
*1513 FILLER_4_82
*1514 FILLER_4_85
*1515 FILLER_4_97
*1516 FILLER_50_109
*1517 FILLER_50_121
*1518 FILLER_50_133
*1519 FILLER_50_139
*1520 FILLER_50_141
*1521 FILLER_50_15
*1522 FILLER_50_153
*1523 FILLER_50_165
*1524 FILLER_50_177
*1525 FILLER_50_189
*1526 FILLER_50_195
*1527 FILLER_50_197
*1528 FILLER_50_209
*1529 FILLER_50_221
*1530 FILLER_50_233
*1531 FILLER_50_245
*1532 FILLER_50_251
*1533 FILLER_50_253
*1534 FILLER_50_265
*1535 FILLER_50_27
*1536 FILLER_50_277
*1537 FILLER_50_289
*1538 FILLER_50_29
*1539 FILLER_50_297
*1540 FILLER_50_3
*1541 FILLER_50_41
*1542 FILLER_50_53
*1543 FILLER_50_65
*1544 FILLER_50_77
*1545 FILLER_50_83
*1546 FILLER_50_85
*1547 FILLER_50_97
*1548 FILLER_51_105
*1549 FILLER_51_111
*1550 FILLER_51_113
*1551 FILLER_51_125
*1552 FILLER_51_137
*1553 FILLER_51_149
*1554 FILLER_51_15
*1555 FILLER_51_161
*1556 FILLER_51_167
*1557 FILLER_51_169
*1558 FILLER_51_181
*1559 FILLER_51_193
*1560 FILLER_51_205
*1561 FILLER_51_217
*1562 FILLER_51_223
*1563 FILLER_51_225
*1564 FILLER_51_237
*1565 FILLER_51_249
*1566 FILLER_51_261
*1567 FILLER_51_27
*1568 FILLER_51_273
*1569 FILLER_51_279
*1570 FILLER_51_281
*1571 FILLER_51_293
*1572 FILLER_51_3
*1573 FILLER_51_39
*1574 FILLER_51_51
*1575 FILLER_51_55
*1576 FILLER_51_57
*1577 FILLER_51_69
*1578 FILLER_51_81
*1579 FILLER_51_93
*1580 FILLER_52_109
*1581 FILLER_52_121
*1582 FILLER_52_133
*1583 FILLER_52_139
*1584 FILLER_52_141
*1585 FILLER_52_15
*1586 FILLER_52_153
*1587 FILLER_52_165
*1588 FILLER_52_177
*1589 FILLER_52_189
*1590 FILLER_52_195