*SPEF "ieee 1481-1999"
*DESIGN "user_module_360745091952588801"
*DATE "11:11:11 Fri 11 11, 1111"
*VENDOR "OpenRCX"
*PROGRAM "Parallel Extraction"
*VERSION "1.0"
*DESIGN_FLOW "NAME_SCOPE LOCAL" "PIN_CAP NONE"
*DIVIDER /
*DELIMITER :
*BUS_DELIMITER []
*T_UNIT 1 NS
*C_UNIT 1 PF
*R_UNIT 1 OHM
*L_UNIT 1 HENRY

*NAME_MAP
*1 io_in[0]
*2 io_in[1]
*3 io_in[2]
*4 io_in[3]
*5 io_in[4]
*6 io_in[5]
*7 io_in[6]
*8 io_in[7]
*9 io_out[0]
*10 io_out[1]
*11 io_out[2]
*12 io_out[3]
*13 net8
*14 net9
*15 net10
*16 io_out[7]
*19 _000_
*20 _001_
*21 _002_
*22 _003_
*23 _004_
*24 _005_
*25 _006_
*26 _007_
*27 _008_
*28 _009_
*29 _010_
*30 _011_
*31 _012_
*32 _013_
*33 _014_
*34 _015_
*35 _016_
*36 _017_
*37 _018_
*38 _019_
*39 _020_
*40 _021_
*41 _022_
*42 _023_
*43 _024_
*44 _025_
*45 _026_
*46 _027_
*47 _028_
*48 _029_
*49 _030_
*50 _031_
*51 _032_
*52 _033_
*53 _034_
*54 _035_
*55 _036_
*56 _037_
*57 _038_
*58 _039_
*59 _040_
*60 _041_
*61 _042_
*62 _043_
*63 _044_
*64 _045_
*65 _046_
*66 _047_
*67 _048_
*68 _049_
*69 _050_
*70 _051_
*71 _052_
*72 _053_
*73 _054_
*74 _055_
*75 _056_
*76 _057_
*77 and2\.a
*78 and4\.a
*79 and6\.a
*80 and8\.a
*81 clknet_0_io_in[0]
*82 clknet_1_0__leaf_io_in[0]
*83 clknet_1_1__leaf_io_in[0]
*84 flop2\.d
*85 flop3\.d
*86 flop4\.q
*87 flop5\.d
*88 flop6\.d
*89 net1
*90 net2
*91 net3
*92 net4
*93 net5
*94 net6
*95 net7
*96 FILLER_0_109
*97 FILLER_0_113
*98 FILLER_0_125
*99 FILLER_0_137
*100 FILLER_0_141
*101 FILLER_0_153
*102 FILLER_0_165
*103 FILLER_0_169
*104 FILLER_0_181
*105 FILLER_0_193
*106 FILLER_0_197
*107 FILLER_0_209
*108 FILLER_0_221
*109 FILLER_0_225
*110 FILLER_0_237
*111 FILLER_0_249
*112 FILLER_0_25
*113 FILLER_0_253
*114 FILLER_0_265
*115 FILLER_0_277
*116 FILLER_0_281
*117 FILLER_0_29
*118 FILLER_0_293
*119 FILLER_0_3
*120 FILLER_0_47
*121 FILLER_0_55
*122 FILLER_0_57
*123 FILLER_0_69
*124 FILLER_0_81
*125 FILLER_0_85
*126 FILLER_0_97
*127 FILLER_10_109
*128 FILLER_10_121
*129 FILLER_10_133
*130 FILLER_10_139
*131 FILLER_10_141
*132 FILLER_10_153
*133 FILLER_10_165
*134 FILLER_10_177
*135 FILLER_10_189
*136 FILLER_10_195
*137 FILLER_10_197
*138 FILLER_10_209
*139 FILLER_10_21
*140 FILLER_10_221
*141 FILLER_10_233
*142 FILLER_10_245
*143 FILLER_10_251
*144 FILLER_10_253
*145 FILLER_10_265
*146 FILLER_10_27
*147 FILLER_10_277
*148 FILLER_10_289
*149 FILLER_10_29
*150 FILLER_10_297
*151 FILLER_10_3
*152 FILLER_10_41
*153 FILLER_10_53
*154 FILLER_10_65
*155 FILLER_10_77
*156 FILLER_10_83
*157 FILLER_10_85
*158 FILLER_10_9
*159 FILLER_10_97
*160 FILLER_11_105
*161 FILLER_11_11
*162 FILLER_11_111
*163 FILLER_11_113
*164 FILLER_11_125
*165 FILLER_11_137
*166 FILLER_11_149
*167 FILLER_11_161
*168 FILLER_11_167
*169 FILLER_11_169
*170 FILLER_11_181
*171 FILLER_11_193
*172 FILLER_11_205
*173 FILLER_11_217
*174 FILLER_11_223
*175 FILLER_11_225
*176 FILLER_11_23
*177 FILLER_11_237
*178 FILLER_11_249
*179 FILLER_11_261
*180 FILLER_11_273
*181 FILLER_11_279
*182 FILLER_11_281
*183 FILLER_11_293
*184 FILLER_11_3
*185 FILLER_11_35
*186 FILLER_11_47
*187 FILLER_11_55
*188 FILLER_11_57
*189 FILLER_11_69
*190 FILLER_11_81
*191 FILLER_11_93
*192 FILLER_12_109
*193 FILLER_12_12
*194 FILLER_12_121
*195 FILLER_12_133
*196 FILLER_12_139
*197 FILLER_12_141
*198 FILLER_12_153
*199 FILLER_12_165
*200 FILLER_12_177
*201 FILLER_12_189
*202 FILLER_12_195
*203 FILLER_12_197
*204 FILLER_12_209
*205 FILLER_12_221
*206 FILLER_12_233
*207 FILLER_12_24
*208 FILLER_12_245
*209 FILLER_12_251
*210 FILLER_12_253
*211 FILLER_12_265
*212 FILLER_12_277
*213 FILLER_12_289
*214 FILLER_12_29
*215 FILLER_12_297
*216 FILLER_12_3
*217 FILLER_12_41
*218 FILLER_12_53
*219 FILLER_12_65
*220 FILLER_12_77
*221 FILLER_12_83
*222 FILLER_12_85
*223 FILLER_12_97
*224 FILLER_13_105
*225 FILLER_13_111
*226 FILLER_13_113
*227 FILLER_13_125
*228 FILLER_13_137
*229 FILLER_13_149
*230 FILLER_13_15
*231 FILLER_13_161
*232 FILLER_13_167
*233 FILLER_13_169
*234 FILLER_13_181
*235 FILLER_13_193
*236 FILLER_13_205
*237 FILLER_13_217
*238 FILLER_13_223
*239 FILLER_13_225
*240 FILLER_13_237
*241 FILLER_13_249
*242 FILLER_13_261
*243 FILLER_13_27
*244 FILLER_13_273
*245 FILLER_13_279
*246 FILLER_13_281
*247 FILLER_13_293
*248 FILLER_13_3
*249 FILLER_13_39
*250 FILLER_13_51
*251 FILLER_13_55
*252 FILLER_13_57
*253 FILLER_13_69
*254 FILLER_13_81
*255 FILLER_13_93
*256 FILLER_14_109
*257 FILLER_14_12
*258 FILLER_14_121
*259 FILLER_14_133
*260 FILLER_14_139
*261 FILLER_14_141
*262 FILLER_14_153
*263 FILLER_14_165
*264 FILLER_14_177
*265 FILLER_14_189
*266 FILLER_14_195
*267 FILLER_14_197
*268 FILLER_14_209
*269 FILLER_14_221
*270 FILLER_14_233
*271 FILLER_14_24
*272 FILLER_14_245
*273 FILLER_14_251
*274 FILLER_14_253
*275 FILLER_14_265
*276 FILLER_14_277
*277 FILLER_14_289
*278 FILLER_14_29
*279 FILLER_14_297
*280 FILLER_14_3
*281 FILLER_14_41
*282 FILLER_14_53
*283 FILLER_14_65
*284 FILLER_14_77
*285 FILLER_14_83
*286 FILLER_14_85
*287 FILLER_14_97
*288 FILLER_15_105
*289 FILLER_15_111
*290 FILLER_15_113
*291 FILLER_15_125
*292 FILLER_15_137
*293 FILLER_15_149
*294 FILLER_15_161
*295 FILLER_15_167
*296 FILLER_15_169
*297 FILLER_15_17
*298 FILLER_15_181
*299 FILLER_15_193
*300 FILLER_15_205
*301 FILLER_15_217
*302 FILLER_15_223
*303 FILLER_15_225
*304 FILLER_15_237
*305 FILLER_15_24
*306 FILLER_15_249
*307 FILLER_15_261
*308 FILLER_15_273
*309 FILLER_15_279
*310 FILLER_15_281
*311 FILLER_15_293
*312 FILLER_15_3
*313 FILLER_15_35
*314 FILLER_15_44
*315 FILLER_15_57
*316 FILLER_15_69
*317 FILLER_15_81
*318 FILLER_15_93
*319 FILLER_16_109
*320 FILLER_16_121
*321 FILLER_16_133
*322 FILLER_16_139
*323 FILLER_16_14
*324 FILLER_16_141
*325 FILLER_16_153
*326 FILLER_16_165
*327 FILLER_16_177
*328 FILLER_16_189
*329 FILLER_16_195
*330 FILLER_16_197
*331 FILLER_16_209
*332 FILLER_16_221
*333 FILLER_16_23
*334 FILLER_16_233
*335 FILLER_16_245
*336 FILLER_16_251
*337 FILLER_16_253
*338 FILLER_16_265
*339 FILLER_16_27
*340 FILLER_16_277
*341 FILLER_16_289
*342 FILLER_16_29
*343 FILLER_16_297
*344 FILLER_16_3
*345 FILLER_16_37
*346 FILLER_16_49
*347 FILLER_16_61
*348 FILLER_16_73
*349 FILLER_16_81
*350 FILLER_16_85
*351 FILLER_16_97
*352 FILLER_17_105
*353 FILLER_17_11
*354 FILLER_17_111
*355 FILLER_17_113
*356 FILLER_17_125
*357 FILLER_17_137
*358 FILLER_17_149
*359 FILLER_17_161
*360 FILLER_17_167
*361 FILLER_17_169
*362 FILLER_17_181
*363 FILLER_17_193
*364 FILLER_17_205
*365 FILLER_17_21
*366 FILLER_17_217
*367 FILLER_17_223
*368 FILLER_17_225
*369 FILLER_17_237
*370 FILLER_17_249
*371 FILLER_17_261
*372 FILLER_17_273
*373 FILLER_17_279
*374 FILLER_17_281
*375 FILLER_17_293
*376 FILLER_17_3
*377 FILLER_17_31
*378 FILLER_17_39
*379 FILLER_17_51
*380 FILLER_17_55
*381 FILLER_17_57
*382 FILLER_17_69
*383 FILLER_17_81
*384 FILLER_17_93
*385 FILLER_18_109
*386 FILLER_18_121
*387 FILLER_18_133
*388 FILLER_18_139
*389 FILLER_18_141
*390 FILLER_18_153
*391 FILLER_18_165
*392 FILLER_18_177
*393 FILLER_18_189
*394 FILLER_18_195
*395 FILLER_18_197
*396 FILLER_18_209
*397 FILLER_18_21
*398 FILLER_18_221
*399 FILLER_18_233
*400 FILLER_18_245
*401 FILLER_18_251
*402 FILLER_18_253
*403 FILLER_18_265
*404 FILLER_18_27
*405 FILLER_18_277
*406 FILLER_18_289
*407 FILLER_18_29
*408 FILLER_18_297
*409 FILLER_18_3
*410 FILLER_18_35
*411 FILLER_18_44
*412 FILLER_18_56
*413 FILLER_18_68
*414 FILLER_18_8
*415 FILLER_18_80
*416 FILLER_18_85
*417 FILLER_18_97
*418 FILLER_19_103
*419 FILLER_19_111
*420 FILLER_19_113
*421 FILLER_19_12
*422 FILLER_19_125
*423 FILLER_19_137
*424 FILLER_19_149
*425 FILLER_19_161
*426 FILLER_19_167
*427 FILLER_19_169
*428 FILLER_19_181
*429 FILLER_19_19
*430 FILLER_19_193
*431 FILLER_19_205
*432 FILLER_19_217
*433 FILLER_19_223
*434 FILLER_19_225
*435 FILLER_19_237
*436 FILLER_19_249
*437 FILLER_19_261
*438 FILLER_19_273
*439 FILLER_19_279
*440 FILLER_19_281
*441 FILLER_19_293
*442 FILLER_19_3
*443 FILLER_19_32
*444 FILLER_19_39
*445 FILLER_19_51
*446 FILLER_19_55
*447 FILLER_19_57
*448 FILLER_19_67
*449 FILLER_19_79
*450 FILLER_19_91
*451 FILLER_1_105
*452 FILLER_1_111
*453 FILLER_1_113
*454 FILLER_1_125
*455 FILLER_1_137
*456 FILLER_1_149
*457 FILLER_1_161
*458 FILLER_1_167
*459 FILLER_1_169
*460 FILLER_1_181
*461 FILLER_1_193
*462 FILLER_1_205
*463 FILLER_1_21
*464 FILLER_1_217
*465 FILLER_1_223
*466 FILLER_1_225
*467 FILLER_1_237
*468 FILLER_1_249
*469 FILLER_1_261
*470 FILLER_1_273
*471 FILLER_1_279
*472 FILLER_1_281
*473 FILLER_1_293
*474 FILLER_1_3
*475 FILLER_1_41
*476 FILLER_1_53
*477 FILLER_1_57
*478 FILLER_1_69
*479 FILLER_1_81
*480 FILLER_1_93
*481 FILLER_20_10
*482 FILLER_20_109
*483 FILLER_20_121
*484 FILLER_20_133
*485 FILLER_20_139
*486 FILLER_20_141
*487 FILLER_20_153
*488 FILLER_20_165
*489 FILLER_20_177
*490 FILLER_20_189
*491 FILLER_20_195
*492 FILLER_20_197
*493 FILLER_20_209
*494 FILLER_20_21
*495 FILLER_20_221
*496 FILLER_20_233
*497 FILLER_20_245
*498 FILLER_20_251
*499 FILLER_20_253
*500 FILLER_20_265
*501 FILLER_20_27
*502 FILLER_20_277
*503 FILLER_20_289
*504 FILLER_20_29
*505 FILLER_20_297
*506 FILLER_20_3
*507 FILLER_20_35
*508 FILLER_20_43
*509 FILLER_20_55
*510 FILLER_20_67
*511 FILLER_20_79
*512 FILLER_20_83
*513 FILLER_20_85
*514 FILLER_20_97
*515 FILLER_21_105
*516 FILLER_21_111
*517 FILLER_21_113
*518 FILLER_21_12
*519 FILLER_21_125
*520 FILLER_21_137
*521 FILLER_21_149
*522 FILLER_21_161
*523 FILLER_21_167
*524 FILLER_21_169
*525 FILLER_21_181
*526 FILLER_21_193
*527 FILLER_21_20
*528 FILLER_21_205
*529 FILLER_21_217
*530 FILLER_21_223
*531 FILLER_21_225
*532 FILLER_21_237
*533 FILLER_21_249
*534 FILLER_21_26
*535 FILLER_21_261
*536 FILLER_21_273
*537 FILLER_21_279
*538 FILLER_21_281
*539 FILLER_21_293
*540 FILLER_21_3
*541 FILLER_21_35
*542 FILLER_21_51
*543 FILLER_21_55
*544 FILLER_21_57
*545 FILLER_21_69
*546 FILLER_21_81
*547 FILLER_21_93
*548 FILLER_22_109
*549 FILLER_22_121
*550 FILLER_22_133
*551 FILLER_22_139
*552 FILLER_22_14
*553 FILLER_22_141
*554 FILLER_22_153
*555 FILLER_22_165
*556 FILLER_22_177
*557 FILLER_22_189
*558 FILLER_22_195
*559 FILLER_22_197
*560 FILLER_22_20
*561 FILLER_22_209
*562 FILLER_22_221
*563 FILLER_22_233
*564 FILLER_22_245
*565 FILLER_22_251
*566 FILLER_22_253
*567 FILLER_22_265
*568 FILLER_22_277
*569 FILLER_22_289
*570 FILLER_22_29
*571 FILLER_22_297
*572 FILLER_22_3
*573 FILLER_22_37
*574 FILLER_22_49
*575 FILLER_22_61
*576 FILLER_22_73
*577 FILLER_22_8
*578 FILLER_22_81
*579 FILLER_22_85
*580 FILLER_22_97
*581 FILLER_23_105
*582 FILLER_23_111
*583 FILLER_23_113
*584 FILLER_23_125
*585 FILLER_23_137
*586 FILLER_23_14
*587 FILLER_23_149
*588 FILLER_23_161
*589 FILLER_23_167
*590 FILLER_23_169
*591 FILLER_23_181
*592 FILLER_23_193
*593 FILLER_23_205
*594 FILLER_23_217
*595 FILLER_23_22
*596 FILLER_23_223
*597 FILLER_23_225
*598 FILLER_23_237
*599 FILLER_23_249
*600 FILLER_23_261
*601 FILLER_23_273
*602 FILLER_23_279
*603 FILLER_23_281
*604 FILLER_23_293
*605 FILLER_23_3
*606 FILLER_23_31
*607 FILLER_23_43
*608 FILLER_23_55
*609 FILLER_23_57
*610 FILLER_23_69
*611 FILLER_23_81
*612 FILLER_23_93
*613 FILLER_24_109
*614 FILLER_24_121
*615 FILLER_24_133
*616 FILLER_24_139
*617 FILLER_24_141
*618 FILLER_24_153
*619 FILLER_24_16
*620 FILLER_24_165
*621 FILLER_24_177
*622 FILLER_24_189
*623 FILLER_24_195
*624 FILLER_24_197
*625 FILLER_24_209
*626 FILLER_24_221
*627 FILLER_24_233
*628 FILLER_24_24
*629 FILLER_24_245
*630 FILLER_24_251
*631 FILLER_24_253
*632 FILLER_24_265
*633 FILLER_24_277
*634 FILLER_24_289
*635 FILLER_24_29
*636 FILLER_24_297
*637 FILLER_24_3
*638 FILLER_24_34
*639 FILLER_24_42
*640 FILLER_24_52
*641 FILLER_24_60
*642 FILLER_24_70
*643 FILLER_24_82
*644 FILLER_24_85
*645 FILLER_24_97
*646 FILLER_25_105
*647 FILLER_25_111
*648 FILLER_25_113
*649 FILLER_25_125
*650 FILLER_25_13
*651 FILLER_25_137
*652 FILLER_25_149
*653 FILLER_25_161
*654 FILLER_25_167
*655 FILLER_25_169
*656 FILLER_25_181
*657 FILLER_25_19
*658 FILLER_25_193
*659 FILLER_25_205
*660 FILLER_25_217
*661 FILLER_25_223
*662 FILLER_25_225
*663 FILLER_25_23
*664 FILLER_25_237
*665 FILLER_25_249
*666 FILLER_25_261
*667 FILLER_25_273
*668 FILLER_25_279
*669 FILLER_25_281
*670 FILLER_25_293
*671 FILLER_25_3
*672 FILLER_25_35
*673 FILLER_25_39
*674 FILLER_25_45
*675 FILLER_25_53
*676 FILLER_25_57
*677 FILLER_25_69
*678 FILLER_25_81
*679 FILLER_25_93
*680 FILLER_26_109
*681 FILLER_26_121
*682 FILLER_26_133
*683 FILLER_26_139
*684 FILLER_26_14
*685 FILLER_26_141
*686 FILLER_26_153
*687 FILLER_26_165
*688 FILLER_26_177
*689 FILLER_26_189
*690 FILLER_26_195
*691 FILLER_26_197
*692 FILLER_26_209
*693 FILLER_26_221
*694 FILLER_26_23
*695 FILLER_26_233
*696 FILLER_26_245
*697 FILLER_26_251
*698 FILLER_26_253
*699 FILLER_26_265
*700 FILLER_26_27
*701 FILLER_26_277
*702 FILLER_26_289
*703 FILLER_26_29
*704 FILLER_26_297
*705 FILLER_26_3
*706 FILLER_26_34
*707 FILLER_26_46
*708 FILLER_26_58
*709 FILLER_26_70
*710 FILLER_26_82
*711 FILLER_26_85
*712 FILLER_26_9
*713 FILLER_26_97
*714 FILLER_27_110
*715 FILLER_27_113
*716 FILLER_27_12
*717 FILLER_27_125
*718 FILLER_27_137
*719 FILLER_27_149
*720 FILLER_27_161
*721 FILLER_27_167
*722 FILLER_27_169
*723 FILLER_27_181
*724 FILLER_27_19
*725 FILLER_27_193
*726 FILLER_27_205
*727 FILLER_27_217
*728 FILLER_27_223
*729 FILLER_27_225
*730 FILLER_27_237
*731 FILLER_27_249
*732 FILLER_27_261
*733 FILLER_27_27
*734 FILLER_27_273
*735 FILLER_27_279
*736 FILLER_27_281
*737 FILLER_27_293
*738 FILLER_27_3
*739 FILLER_27_33
*740 FILLER_27_45
*741 FILLER_27_53
*742 FILLER_27_57
*743 FILLER_27_62
*744 FILLER_27_74
*745 FILLER_27_86
*746 FILLER_27_98
*747 FILLER_28_109
*748 FILLER_28_121
*749 FILLER_28_133
*750 FILLER_28_139
*751 FILLER_28_14
*752 FILLER_28_141
*753 FILLER_28_153
*754 FILLER_28_165
*755 FILLER_28_177
*756 FILLER_28_189
*757 FILLER_28_19
*758 FILLER_28_195
*759 FILLER_28_197
*760 FILLER_28_209
*761 FILLER_28_221
*762 FILLER_28_233
*763 FILLER_28_245
*764 FILLER_28_251
*765 FILLER_28_253
*766 FILLER_28_265
*767 FILLER_28_27
*768 FILLER_28_277
*769 FILLER_28_289
*770 FILLER_28_29
*771 FILLER_28_297
*772 FILLER_28_3
*773 FILLER_28_38
*774 FILLER_28_47
*775 FILLER_28_59
*776 FILLER_28_68
*777 FILLER_28_8
*778 FILLER_28_80
*779 FILLER_28_85
*780 FILLER_28_97
*781 FILLER_29_105
*782 FILLER_29_111
*783 FILLER_29_113
*784 FILLER_29_12
*785 FILLER_29_125
*786 FILLER_29_137
*787 FILLER_29_149
*788 FILLER_29_161
*789 FILLER_29_167
*790 FILLER_29_169
*791 FILLER_29_181
*792 FILLER_29_193
*793 FILLER_29_205
*794 FILLER_29_217
*795 FILLER_29_223
*796 FILLER_29_225
*797 FILLER_29_237
*798 FILLER_29_249
*799 FILLER_29_261
*800 FILLER_29_27
*801 FILLER_29_273
*802 FILLER_29_279
*803 FILLER_29_281
*804 FILLER_29_293
*805 FILLER_29_3
*806 FILLER_29_33
*807 FILLER_29_43
*808 FILLER_29_55
*809 FILLER_29_57
*810 FILLER_29_69
*811 FILLER_29_81
*812 FILLER_29_93
*813 FILLER_2_109
*814 FILLER_2_121
*815 FILLER_2_133
*816 FILLER_2_139
*817 FILLER_2_141
*818 FILLER_2_153
*819 FILLER_2_165
*820 FILLER_2_177
*821 FILLER_2_189
*822 FILLER_2_195
*823 FILLER_2_197
*824 FILLER_2_209
*825 FILLER_2_221
*826 FILLER_2_233
*827 FILLER_2_245
*828 FILLER_2_251
*829 FILLER_2_253
*830 FILLER_2_26
*831 FILLER_2_265
*832 FILLER_2_277
*833 FILLER_2_289
*834 FILLER_2_29
*835 FILLER_2_297
*836 FILLER_2_3
*837 FILLER_2_47
*838 FILLER_2_59
*839 FILLER_2_71
*840 FILLER_2_83
*841 FILLER_2_85
*842 FILLER_2_97
*843 FILLER_30_109
*844 FILLER_30_121
*845 FILLER_30_133
*846 FILLER_30_139
*847 FILLER_30_141
*848 FILLER_30_15
*849 FILLER_30_153
*850 FILLER_30_165
*851 FILLER_30_177
*852 FILLER_30_189
*853 FILLER_30_195
*854 FILLER_30_197
*855 FILLER_30_209
*856 FILLER_30_221
*857 FILLER_30_233
*858 FILLER_30_245
*859 FILLER_30_251
*860 FILLER_30_253
*861 FILLER_30_265
*862 FILLER_30_27
*863 FILLER_30_277
*864 FILLER_30_289
*865 FILLER_30_29
*866 FILLER_30_297
*867 FILLER_30_3
*868 FILLER_30_34
*869 FILLER_30_46
*870 FILLER_30_58
*871 FILLER_30_70
*872 FILLER_30_82
*873 FILLER_30_85
*874 FILLER_30_97
*875 FILLER_31_105
*876 FILLER_31_111
*877 FILLER_31_113
*878 FILLER_31_125
*879 FILLER_31_13
*880 FILLER_31_137
*881 FILLER_31_149
*882 FILLER_31_161
*883 FILLER_31_167
*884 FILLER_31_169
*885 FILLER_31_181
*886 FILLER_31_193
*887 FILLER_31_205
*888 FILLER_31_21
*889 FILLER_31_217
*890 FILLER_31_223
*891 FILLER_31_225
*892 FILLER_31_237
*893 FILLER_31_249
*894 FILLER_31_261
*895 FILLER_31_273
*896 FILLER_31_279
*897 FILLER_31_28
*898 FILLER_31_281
*899 FILLER_31_293
*900 FILLER_31_3
*901 FILLER_31_35
*902 FILLER_31_45
*903 FILLER_31_53
*904 FILLER_31_57
*905 FILLER_31_69
*906 FILLER_31_81
*907 FILLER_31_93
*908 FILLER_32_109
*909 FILLER_32_11
*910 FILLER_32_121
*911 FILLER_32_133
*912 FILLER_32_139
*913 FILLER_32_141
*914 FILLER_32_153
*915 FILLER_32_165
*916 FILLER_32_177
*917 FILLER_32_189
*918 FILLER_32_19
*919 FILLER_32_195
*920 FILLER_32_197
*921 FILLER_32_209
*922 FILLER_32_221
*923 FILLER_32_233
*924 FILLER_32_245
*925 FILLER_32_251
*926 FILLER_32_253
*927 FILLER_32_26
*928 FILLER_32_265
*929 FILLER_32_277
*930 FILLER_32_289
*931 FILLER_32_29
*932 FILLER_32_297
*933 FILLER_32_3
*934 FILLER_32_42
*935 FILLER_32_54
*936 FILLER_32_66
*937 FILLER_32_78
*938 FILLER_32_85
*939 FILLER_32_97
*940 FILLER_33_10
*941 FILLER_33_105
*942 FILLER_33_111
*943 FILLER_33_113
*944 FILLER_33_125
*945 FILLER_33_137
*946 FILLER_33_149
*947 FILLER_33_161
*948 FILLER_33_167
*949 FILLER_33_169
*950 FILLER_33_181
*951 FILLER_33_193
*952 FILLER_33_205
*953 FILLER_33_217
*954 FILLER_33_22
*955 FILLER_33_223
*956 FILLER_33_225
*957 FILLER_33_237
*958 FILLER_33_249
*959 FILLER_33_261
*960 FILLER_33_273
*961 FILLER_33_279
*962 FILLER_33_281
*963 FILLER_33_293
*964 FILLER_33_3
*965 FILLER_33_34
*966 FILLER_33_46
*967 FILLER_33_53
*968 FILLER_33_57
*969 FILLER_33_69
*970 FILLER_33_81
*971 FILLER_33_93
*972 FILLER_34_109
*973 FILLER_34_121
*974 FILLER_34_133
*975 FILLER_34_139
*976 FILLER_34_141
*977 FILLER_34_15
*978 FILLER_34_153
*979 FILLER_34_165
*980 FILLER_34_177
*981 FILLER_34_189
*982 FILLER_34_195
*983 FILLER_34_197
*984 FILLER_34_209
*985 FILLER_34_221
*986 FILLER_34_233
*987 FILLER_34_245
*988 FILLER_34_251
*989 FILLER_34_253
*990 FILLER_34_265
*991 FILLER_34_27
*992 FILLER_34_277
*993 FILLER_34_289
*994 FILLER_34_29
*995 FILLER_34_297
*996 FILLER_34_3
*997 FILLER_34_41
*998 FILLER_34_53
*999 FILLER_34_65
*1000 FILLER_34_77
*1001 FILLER_34_83
*1002 FILLER_34_85
*1003 FILLER_34_97
*1004 FILLER_35_105
*1005 FILLER_35_111
*1006 FILLER_35_113
*1007 FILLER_35_125
*1008 FILLER_35_137
*1009 FILLER_35_149
*1010 FILLER_35_15
*1011 FILLER_35_161
*1012 FILLER_35_167
*1013 FILLER_35_169
*1014 FILLER_35_181
*1015 FILLER_35_193
*1016 FILLER_35_205
*1017 FILLER_35_217
*1018 FILLER_35_223
*1019 FILLER_35_225
*1020 FILLER_35_237
*1021 FILLER_35_249
*1022 FILLER_35_261
*1023 FILLER_35_27
*1024 FILLER_35_273
*1025 FILLER_35_279
*1026 FILLER_35_281
*1027 FILLER_35_293
*1028 FILLER_35_3
*1029 FILLER_35_39
*1030 FILLER_35_51
*1031 FILLER_35_55
*1032 FILLER_35_57
*1033 FILLER_35_69
*1034 FILLER_35_81
*1035 FILLER_35_93
*1036 FILLER_36_109
*1037 FILLER_36_121
*1038 FILLER_36_133
*1039 FILLER_36_139
*1040 FILLER_36_141
*1041 FILLER_36_153
*1042 FILLER_36_165
*1043 FILLER_36_177
*1044 FILLER_36_189
*1045 FILLER_36_195
*1046 FILLER_36_197
*1047 FILLER_36_209
*1048 FILLER_36_21
*1049 FILLER_36_221
*1050 FILLER_36_233
*1051 FILLER_36_245
*1052 FILLER_36_251
*1053 FILLER_36_253
*1054 FILLER_36_265
*1055 FILLER_36_27
*1056 FILLER_36_277
*1057 FILLER_36_289
*1058 FILLER_36_29
*1059 FILLER_36_297
*1060 FILLER_36_3
*1061 FILLER_36_41
*1062 FILLER_36_53
*1063 FILLER_36_65
*1064 FILLER_36_77
*1065 FILLER_36_83
*1066 FILLER_36_85
*1067 FILLER_36_9
*1068 FILLER_36_97
*1069 FILLER_37_105
*1070 FILLER_37_111
*1071 FILLER_37_113
*1072 FILLER_37_125
*1073 FILLER_37_13
*1074 FILLER_37_137
*1075 FILLER_37_149
*1076 FILLER_37_161
*1077 FILLER_37_167
*1078 FILLER_37_169
*1079 FILLER_37_181
*1080 FILLER_37_193
*1081 FILLER_37_205
*1082 FILLER_37_217
*1083 FILLER_37_223
*1084 FILLER_37_225
*1085 FILLER_37_237
*1086 FILLER_37_249
*1087 FILLER_37_25
*1088 FILLER_37_261
*1089 FILLER_37_273
*1090 FILLER_37_279
*1091 FILLER_37_281
*1092 FILLER_37_293
*1093 FILLER_37_3
*1094 FILLER_37_37
*1095 FILLER_37_49
*1096 FILLER_37_55
*1097 FILLER_37_57
*1098 FILLER_37_69
*1099 FILLER_37_81
*1100 FILLER_37_93
*1101 FILLER_38_109
*1102 FILLER_38_11
*1103 FILLER_38_121
*1104 FILLER_38_133
*1105 FILLER_38_139
*1106 FILLER_38_141
*1107 FILLER_38_153
*1108 FILLER_38_165
*1109 FILLER_38_177
*1110 FILLER_38_189
*1111 FILLER_38_195
*1112 FILLER_38_197
*1113 FILLER_38_209
*1114 FILLER_38_221
*1115 FILLER_38_23
*1116 FILLER_38_233
*1117 FILLER_38_245
*1118 FILLER_38_251
*1119 FILLER_38_253
*1120 FILLER_38_265
*1121 FILLER_38_27
*1122 FILLER_38_277
*1123 FILLER_38_289
*1124 FILLER_38_29
*1125 FILLER_38_297
*1126 FILLER_38_3
*1127 FILLER_38_41
*1128 FILLER_38_53
*1129 FILLER_38_65
*1130 FILLER_38_77
*1131 FILLER_38_83
*1132 FILLER_38_85
*1133 FILLER_38_97
*1134 FILLER_39_105
*1135 FILLER_39_111
*1136 FILLER_39_113
*1137 FILLER_39_125
*1138 FILLER_39_137
*1139 FILLER_39_149
*1140 FILLER_39_15
*1141 FILLER_39_161
*1142 FILLER_39_167
*1143 FILLER_39_169
*1144 FILLER_39_181
*1145 FILLER_39_193
*1146 FILLER_39_205
*1147 FILLER_39_217
*1148 FILLER_39_223
*1149 FILLER_39_225
*1150 FILLER_39_237
*1151 FILLER_39_249
*1152 FILLER_39_261
*1153 FILLER_39_27
*1154 FILLER_39_273
*1155 FILLER_39_279
*1156 FILLER_39_281
*1157 FILLER_39_293
*1158 FILLER_39_3
*1159 FILLER_39_39
*1160 FILLER_39_51
*1161 FILLER_39_55
*1162 FILLER_39_57
*1163 FILLER_39_69
*1164 FILLER_39_81
*1165 FILLER_39_93
*1166 FILLER_3_105
*1167 FILLER_3_111
*1168 FILLER_3_113
*1169 FILLER_3_125
*1170 FILLER_3_137
*1171 FILLER_3_149
*1172 FILLER_3_161
*1173 FILLER_3_167
*1174 FILLER_3_169
*1175 FILLER_3_181
*1176 FILLER_3_193
*1177 FILLER_3_205
*1178 FILLER_3_217
*1179 FILLER_3_223
*1180 FILLER_3_225
*1181 FILLER_3_237
*1182 FILLER_3_249
*1183 FILLER_3_25
*1184 FILLER_3_261
*1185 FILLER_3_273
*1186 FILLER_3_279
*1187 FILLER_3_281
*1188 FILLER_3_293
*1189 FILLER_3_3
*1190 FILLER_3_37
*1191 FILLER_3_49
*1192 FILLER_3_55
*1193 FILLER_3_57
*1194 FILLER_3_69
*1195 FILLER_3_81
*1196 FILLER_3_93
*1197 FILLER_40_109
*1198 FILLER_40_121
*1199 FILLER_40_133
*1200 FILLER_40_139
*1201 FILLER_40_141
*1202 FILLER_40_15
*1203 FILLER_40_153
*1204 FILLER_40_165
*1205 FILLER_40_177
*1206 FILLER_40_189
*1207 FILLER_40_195
*1208 FILLER_40_197
*1209 FILLER_40_209
*1210 FILLER_40_221
*1211 FILLER_40_233
*1212 FILLER_40_245
*1213 FILLER_40_251
*1214 FILLER_40_253
*1215 FILLER_40_265
*1216 FILLER_40_27
*1217 FILLER_40_277
*1218 FILLER_40_289
*1219 FILLER_40_29
*1220 FILLER_40_297
*1221 FILLER_40_3
*1222 FILLER_40_41
*1223 FILLER_40_53
*1224 FILLER_40_65
*1225 FILLER_40_77
*1226 FILLER_40_83
*1227 FILLER_40_85
*1228 FILLER_40_97
*1229 FILLER_41_105
*1230 FILLER_41_111
*1231 FILLER_41_113
*1232 FILLER_41_125
*1233 FILLER_41_137
*1234 FILLER_41_149
*1235 FILLER_41_15
*1236 FILLER_41_161
*1237 FILLER_41_167
*1238 FILLER_41_169
*1239 FILLER_41_181
*1240 FILLER_41_193
*1241 FILLER_41_205
*1242 FILLER_41_217
*1243 FILLER_41_223
*1244 FILLER_41_225
*1245 FILLER_41_237
*1246 FILLER_41_249
*1247 FILLER_41_261
*1248 FILLER_41_27
*1249 FILLER_41_273
*1250 FILLER_41_279
*1251 FILLER_41_281
*1252 FILLER_41_293
*1253 FILLER_41_3
*1254 FILLER_41_39
*1255 FILLER_41_51
*1256 FILLER_41_55
*1257 FILLER_41_57
*1258 FILLER_41_69
*1259 FILLER_41_81
*1260 FILLER_41_93
*1261 FILLER_42_109
*1262 FILLER_42_121
*1263 FILLER_42_133
*1264 FILLER_42_139
*1265 FILLER_42_141
*1266 FILLER_42_15
*1267 FILLER_42_153
*1268 FILLER_42_165
*1269 FILLER_42_177
*1270 FILLER_42_189
*1271 FILLER_42_195
*1272 FILLER_42_197
*1273 FILLER_42_209
*1274 FILLER_42_221
*1275 FILLER_42_233
*1276 FILLER_42_245
*1277 FILLER_42_251
*1278 FILLER_42_253
*1279 FILLER_42_265
*1280 FILLER_42_27
*1281 FILLER_42_277
*1282 FILLER_42_289
*1283 FILLER_42_29
*1284 FILLER_42_297
*1285 FILLER_42_3
*1286 FILLER_42_41
*1287 FILLER_42_53
*1288 FILLER_42_65
*1289 FILLER_42_77
*1290 FILLER_42_83
*1291 FILLER_42_85
*1292 FILLER_42_97
*1293 FILLER_43_105
*1294 FILLER_43_111
*1295 FILLER_43_113
*1296 FILLER_43_125
*1297 FILLER_43_137
*1298 FILLER_43_149
*1299 FILLER_43_15
*1300 FILLER_43_161
*1301 FILLER_43_167
*1302 FILLER_43_169
*1303 FILLER_43_181
*1304 FILLER_43_193
*1305 FILLER_43_205
*1306 FILLER_43_217
*1307 FILLER_43_223
*1308 FILLER_43_225
*1309 FILLER_43_237
*1310 FILLER_43_249
*1311 FILLER_43_261
*1312 FILLER_43_27
*1313 FILLER_43_273
*1314 FILLER_43_279
*1315 FILLER_43_281
*1316 FILLER_43_293
*1317 FILLER_43_3
*1318 FILLER_43_39
*1319 FILLER_43_51
*1320 FILLER_43_55
*1321 FILLER_43_57
*1322 FILLER_43_69
*1323 FILLER_43_81
*1324 FILLER_43_93
*1325 FILLER_44_109
*1326 FILLER_44_121
*1327 FILLER_44_133
*1328 FILLER_44_139
*1329 FILLER_44_141
*1330 FILLER_44_15
*1331 FILLER_44_153
*1332 FILLER_44_165
*1333 FILLER_44_177
*1334 FILLER_44_189
*1335 FILLER_44_195
*1336 FILLER_44_197
*1337 FILLER_44_209
*1338 FILLER_44_221
*1339 FILLER_44_233
*1340 FILLER_44_245
*1341 FILLER_44_251
*1342 FILLER_44_253
*1343 FILLER_44_265
*1344 FILLER_44_27
*1345 FILLER_44_277
*1346 FILLER_44_289
*1347 FILLER_44_29
*1348 FILLER_44_297
*1349 FILLER_44_3
*1350 FILLER_44_41
*1351 FILLER_44_53
*1352 FILLER_44_65
*1353 FILLER_44_77
*1354 FILLER_44_83
*1355 FILLER_44_85
*1356 FILLER_44_97
*1357 FILLER_45_105
*1358 FILLER_45_111
*1359 FILLER_45_113
*1360 FILLER_45_125
*1361 FILLER_45_137
*1362 FILLER_45_149
*1363 FILLER_45_15
*1364 FILLER_45_161
*1365 FILLER_45_167
*1366 FILLER_45_169
*1367 FILLER_45_181
*1368 FILLER_45_193
*1369 FILLER_45_205
*1370 FILLER_45_217
*1371 FILLER_45_223
*1372 FILLER_45_225
*1373 FILLER_45_237
*1374 FILLER_45_249
*1375 FILLER_45_261
*1376 FILLER_45_27
*1377 FILLER_45_273
*1378 FILLER_45_279
*1379 FILLER_45_281
*1380 FILLER_45_293
*1381 FILLER_45_3
*1382 FILLER_45_39
*1383 FILLER_45_51
*1384 FILLER_45_55
*1385 FILLER_45_57
*1386 FILLER_45_69
*1387 FILLER_45_81
*1388 FILLER_45_93
*1389 FILLER_46_109
*1390 FILLER_46_121
*1391 FILLER_46_133
*1392 FILLER_46_139
*1393 FILLER_46_141
*1394 FILLER_46_153
*1395 FILLER_46_165
*1396 FILLER_46_177
*1397 FILLER_46_189
*1398 FILLER_46_195
*1399 FILLER_46_197
*1400 FILLER_46_20
*1401 FILLER_46_209
*1402 FILLER_46_221
*1403 FILLER_46_233
*1404 FILLER_46_245
*1405 FILLER_46_251
*1406 FILLER_46_253
*1407 FILLER_46_265
*1408 FILLER_46_277
*1409 FILLER_46_289
*1410 FILLER_46_29
*1411 FILLER_46_297
*1412 FILLER_46_3
*1413 FILLER_46_41
*1414 FILLER_46_53
*1415 FILLER_46_65
*1416 FILLER_46_77
*1417 FILLER_46_8
*1418 FILLER_46_83
*1419 FILLER_46_85
*1420 FILLER_46_97
*1421 FILLER_47_105
*1422 FILLER_47_11
*1423 FILLER_47_111
*1424 FILLER_47_113
*1425 FILLER_47_125
*1426 FILLER_47_137
*1427 FILLER_47_149
*1428 FILLER_47_161
*1429 FILLER_47_167
*1430 FILLER_47_169
*1431 FILLER_47_181
*1432 FILLER_47_193
*1433 FILLER_47_205
*1434 FILLER_47_217
*1435 FILLER_47_223
*1436 FILLER_47_225
*1437 FILLER_47_23
*1438 FILLER_47_237
*1439 FILLER_47_249
*1440 FILLER_47_261
*1441 FILLER_47_273
*1442 FILLER_47_279
*1443 FILLER_47_281
*1444 FILLER_47_293
*1445 FILLER_47_3
*1446 FILLER_47_35
*1447 FILLER_47_47
*1448 FILLER_47_55
*1449 FILLER_47_57
*1450 FILLER_47_69
*1451 FILLER_47_81
*1452 FILLER_47_93
*1453 FILLER_48_109
*1454 FILLER_48_121
*1455 FILLER_48_133
*1456 FILLER_48_139
*1457 FILLER_48_141
*1458 FILLER_48_15
*1459 FILLER_48_153
*1460 FILLER_48_165
*1461 FILLER_48_177
*1462 FILLER_48_189
*1463 FILLER_48_195
*1464 FILLER_48_197
*1465 FILLER_48_209
*1466 FILLER_48_221
*1467 FILLER_48_233
*1468 FILLER_48_245
*1469 FILLER_48_251
*1470 FILLER_48_253
*1471 FILLER_48_265
*1472 FILLER_48_27
*1473 FILLER_48_277
*1474 FILLER_48_289
*1475 FILLER_48_29
*1476 FILLER_48_297
*1477 FILLER_48_3
*1478 FILLER_48_41
*1479 FILLER_48_53
*1480 FILLER_48_65
*1481 FILLER_48_77
*1482 FILLER_48_83
*1483 FILLER_48_85
*1484 FILLER_48_97
*1485 FILLER_49_105
*1486 FILLER_49_111
*1487 FILLER_49_113
*1488 FILLER_49_125
*1489 FILLER_49_137
*1490 FILLER_49_149
*1491 FILLER_49_15
*1492 FILLER_49_161
*1493 FILLER_49_167
*1494 FILLER_49_169
*1495 FILLER_49_181
*1496 FILLER_49_193
*1497 FILLER_49_205
*1498 FILLER_49_217
*1499 FILLER_49_223
*1500 FILLER_49_225
*1501 FILLER_49_237
*1502 FILLER_49_249
*1503 FILLER_49_261
*1504 FILLER_49_27
*1505 FILLER_49_273
*1506 FILLER_49_279
*1507 FILLER_49_281
*1508 FILLER_49_293
*1509 FILLER_49_3
*1510 FILLER_49_39
*1511 FILLER_49_51
*1512 FILLER_49_55
*1513 FILLER_49_57
*1514 FILLER_49_69
*1515 FILLER_49_81
*1516 FILLER_49_93
*1517 FILLER_4_109
*1518 FILLER_4_121
*1519 FILLER_4_133
*1520 FILLER_4_139
*1521 FILLER_4_141
*1522 FILLER_4_153
*1523 FILLER_4_165
*1524 FILLER_4_177
*1525 FILLER_4_189
*1526 FILLER_4_195
*1527 FILLER_4_197
*1528 FILLER_4_209
*1529 FILLER_4_21
*1530 FILLER_4_221
*1531 FILLER_4_233
*1532 FILLER_4_245
*1533 FILLER_4_251
*1534 FILLER_4_253
*1535 FILLER_4_265
*1536 FILLER_4_27
*1537 FILLER_4_277
*1538 FILLER_4_289
*1539 FILLER_4_29
*1540 FILLER_4_297
*1541 FILLER_4_3
*1542 FILLER_4_41
*1543 FILLER_4_53
*1544 FILLER_4_65
*1545 FILLER_4_77
*1546 FILLER_4_83
*1547 FILLER_4_85
*1548 FILLER_4_97
*1549 FILLER_50_109
*1550 FILLER_50_121
*1551 FILLER_50_133
*1552 FILLER_50_139
*1553 FILLER_50_141
*1554 FILLER_50_153
*1555 FILLER_50_165
*1556 FILLER_50_177
*1557 FILLER_50_189
*1558 FILLER_50_195
*1559 FILLER_50_197
*1560 FILLER_50_20
*1561 FILLER_50_209
*1562 FILLER_50_221
*1563 FILLER_50_233
*1564 FILLER_50_245
*1565 FILLER_50_251
*1566 FILLER_50_253
*1567 FILLER_50_265
*1568 FILLER_50_277
*1569 FILLER_50_289
*1570 FILLER_50_29
*1571 FILLER_50_297
*1572 FILLER_50_3
*1573 FILLER_50_41
*1574 FILLER_50_53
*1575 FILLER_50_65
*1576 FILLER_50_77
*1577 FILLER_50_8
*1578 FILLER_50_83
*1579 FILLER_50_85
*1580 FILLER_50_97
*1581 FILLER_51_105
*1582 FILLER_51_111
*1583 FILLER_51_113
*1584 FILLER_51_125
*1585 FILLER_51_137
*1586 FILLER_51_149
*1587 FILLER_51_15
*1588 FILLER_51_161
*1589 FILLER_51_167
*1590 FILLER_51_169
*1591 FILLER_51_181
*1592 FILLER_51_193
*1593 FILLER_51_205
*1594 FILLER_51_217
*1595 FILLER_51_223
*1596 FILLER_51_225
*1597 FILLER_51_237
*1598 FILLER_51_249
*1599 FILLER_51_261
*1600 FILLER_51_27
*1601 FILLER_51_273
*1602 FILLER_51_279
*1603 FILLER_51_281
*1604 FILLER_51_293
*1605 FILLER_51_3
*1606 FILLER_51_39
*1607 FILLER_51_51
*1608 FILLER_51_55