*SPEF "ieee 1481-1999"
*DESIGN "user_module_341178481588044372"
*DATE "11:11:11 Fri 11 11, 1111"
*VENDOR "OpenRCX"
*PROGRAM "Parallel Extraction"
*VERSION "1.0"
*DESIGN_FLOW "NAME_SCOPE LOCAL" "PIN_CAP NONE"
*DIVIDER /
*DELIMITER :
*BUS_DELIMITER []
*T_UNIT 1 NS
*C_UNIT 1 PF
*R_UNIT 1 OHM
*L_UNIT 1 HENRY

*NAME_MAP
*1 io_in[0]
*2 io_in[1]
*3 io_in[2]
*4 io_in[3]
*5 io_in[4]
*6 io_in[5]
*7 io_in[6]
*8 io_in[7]
*9 io_out[0]
*10 io_out[1]
*11 io_out[2]
*12 io_out[3]
*13 io_out[4]
*14 io_out[5]
*15 io_out[6]
*16 io_out[7]
*19 _00_
*20 _01_
*21 _02_
*22 _03_
*23 flipflop1\.d
*24 flipflop1\.q
*25 flipflop10\.clk
*26 flipflop10\.d
*27 flipflop10\.q
*28 flipflop11\.d
*29 flipflop11\.q
*30 flipflop12\.d
*31 flipflop12\.q
*32 flipflop13\.d
*33 flipflop13\.q
*34 flipflop14\.q
*35 flipflop15\.q
*36 flipflop16\.q
*37 flipflop17\.q
*38 flipflop18\.q
*39 flipflop19\.q
*40 flipflop2\.d
*41 flipflop2\.q
*42 flipflop3\.d
*43 flipflop3\.q
*44 flipflop4\.d
*45 flipflop4\.q
*46 flipflop5\.d
*47 flipflop5\.q
*48 flipflop6\.d
*49 flipflop6\.q
*50 flipflop7\.d
*51 flipflop7\.q
*52 flipflop8\.d
*53 flipflop8\.q
*54 flipflop9\.d
*55 gate16\.out
*56 net1
*57 net2
*58 net3
*59 net4
*60 net5
*61 net6
*62 net7
*63 FILLER_0_109
*64 FILLER_0_113
*65 FILLER_0_125
*66 FILLER_0_13
*67 FILLER_0_137
*68 FILLER_0_141
*69 FILLER_0_153
*70 FILLER_0_165
*71 FILLER_0_169
*72 FILLER_0_181
*73 FILLER_0_193
*74 FILLER_0_197
*75 FILLER_0_209
*76 FILLER_0_221
*77 FILLER_0_225
*78 FILLER_0_237
*79 FILLER_0_249
*80 FILLER_0_25
*81 FILLER_0_253
*82 FILLER_0_265
*83 FILLER_0_277
*84 FILLER_0_281
*85 FILLER_0_29
*86 FILLER_0_293
*87 FILLER_0_3
*88 FILLER_0_41
*89 FILLER_0_53
*90 FILLER_0_57
*91 FILLER_0_69
*92 FILLER_0_81
*93 FILLER_0_85
*94 FILLER_0_97
*95 FILLER_10_109
*96 FILLER_10_121
*97 FILLER_10_133
*98 FILLER_10_139
*99 FILLER_10_141
*100 FILLER_10_153
*101 FILLER_10_165
*102 FILLER_10_177
*103 FILLER_10_189
*104 FILLER_10_195
*105 FILLER_10_197
*106 FILLER_10_209
*107 FILLER_10_221
*108 FILLER_10_233
*109 FILLER_10_245
*110 FILLER_10_251
*111 FILLER_10_253
*112 FILLER_10_26
*113 FILLER_10_265
*114 FILLER_10_277
*115 FILLER_10_289
*116 FILLER_10_29
*117 FILLER_10_297
*118 FILLER_10_3
*119 FILLER_10_41
*120 FILLER_10_53
*121 FILLER_10_65
*122 FILLER_10_77
*123 FILLER_10_83
*124 FILLER_10_85
*125 FILLER_10_9
*126 FILLER_10_97
*127 FILLER_11_105
*128 FILLER_11_111
*129 FILLER_11_113
*130 FILLER_11_12
*131 FILLER_11_125
*132 FILLER_11_137
*133 FILLER_11_149
*134 FILLER_11_161
*135 FILLER_11_167
*136 FILLER_11_169
*137 FILLER_11_181
*138 FILLER_11_193
*139 FILLER_11_205
*140 FILLER_11_217
*141 FILLER_11_223
*142 FILLER_11_225
*143 FILLER_11_237
*144 FILLER_11_249
*145 FILLER_11_261
*146 FILLER_11_273
*147 FILLER_11_279
*148 FILLER_11_281
*149 FILLER_11_293
*150 FILLER_11_3
*151 FILLER_11_32
*152 FILLER_11_40
*153 FILLER_11_52
*154 FILLER_11_57
*155 FILLER_11_69
*156 FILLER_11_7
*157 FILLER_11_81
*158 FILLER_11_93
*159 FILLER_12_109
*160 FILLER_12_121
*161 FILLER_12_133
*162 FILLER_12_139
*163 FILLER_12_141
*164 FILLER_12_153
*165 FILLER_12_165
*166 FILLER_12_177
*167 FILLER_12_189
*168 FILLER_12_195
*169 FILLER_12_197
*170 FILLER_12_209
*171 FILLER_12_221
*172 FILLER_12_233
*173 FILLER_12_245
*174 FILLER_12_251
*175 FILLER_12_253
*176 FILLER_12_26
*177 FILLER_12_265
*178 FILLER_12_277
*179 FILLER_12_289
*180 FILLER_12_29
*181 FILLER_12_297
*182 FILLER_12_3
*183 FILLER_12_41
*184 FILLER_12_53
*185 FILLER_12_65
*186 FILLER_12_77
*187 FILLER_12_83
*188 FILLER_12_85
*189 FILLER_12_9
*190 FILLER_12_97
*191 FILLER_13_105
*192 FILLER_13_111
*193 FILLER_13_113
*194 FILLER_13_125
*195 FILLER_13_137
*196 FILLER_13_149
*197 FILLER_13_16
*198 FILLER_13_161
*199 FILLER_13_167
*200 FILLER_13_169
*201 FILLER_13_181
*202 FILLER_13_193
*203 FILLER_13_205
*204 FILLER_13_217
*205 FILLER_13_223
*206 FILLER_13_225
*207 FILLER_13_237
*208 FILLER_13_24
*209 FILLER_13_249
*210 FILLER_13_261
*211 FILLER_13_273
*212 FILLER_13_279
*213 FILLER_13_281
*214 FILLER_13_293
*215 FILLER_13_3
*216 FILLER_13_36
*217 FILLER_13_48
*218 FILLER_13_57
*219 FILLER_13_69
*220 FILLER_13_8
*221 FILLER_13_81
*222 FILLER_13_93
*223 FILLER_14_109
*224 FILLER_14_121
*225 FILLER_14_133
*226 FILLER_14_139
*227 FILLER_14_141
*228 FILLER_14_15
*229 FILLER_14_153
*230 FILLER_14_165
*231 FILLER_14_177
*232 FILLER_14_189
*233 FILLER_14_195
*234 FILLER_14_197
*235 FILLER_14_209
*236 FILLER_14_221
*237 FILLER_14_23
*238 FILLER_14_233
*239 FILLER_14_245
*240 FILLER_14_251
*241 FILLER_14_253
*242 FILLER_14_265
*243 FILLER_14_27
*244 FILLER_14_277
*245 FILLER_14_289
*246 FILLER_14_29
*247 FILLER_14_297
*248 FILLER_14_3
*249 FILLER_14_41
*250 FILLER_14_53
*251 FILLER_14_65
*252 FILLER_14_77
*253 FILLER_14_83
*254 FILLER_14_85
*255 FILLER_14_97
*256 FILLER_15_105
*257 FILLER_15_111
*258 FILLER_15_113
*259 FILLER_15_125
*260 FILLER_15_137
*261 FILLER_15_149
*262 FILLER_15_161
*263 FILLER_15_167
*264 FILLER_15_169
*265 FILLER_15_181
*266 FILLER_15_193
*267 FILLER_15_205
*268 FILLER_15_217
*269 FILLER_15_223
*270 FILLER_15_225
*271 FILLER_15_237
*272 FILLER_15_249
*273 FILLER_15_261
*274 FILLER_15_27
*275 FILLER_15_273
*276 FILLER_15_279
*277 FILLER_15_281
*278 FILLER_15_293
*279 FILLER_15_3
*280 FILLER_15_39
*281 FILLER_15_51
*282 FILLER_15_55
*283 FILLER_15_57
*284 FILLER_15_69
*285 FILLER_15_81
*286 FILLER_15_93
*287 FILLER_16_109
*288 FILLER_16_121
*289 FILLER_16_133
*290 FILLER_16_139
*291 FILLER_16_141
*292 FILLER_16_153
*293 FILLER_16_165
*294 FILLER_16_177
*295 FILLER_16_189
*296 FILLER_16_195
*297 FILLER_16_197
*298 FILLER_16_209
*299 FILLER_16_221
*300 FILLER_16_233
*301 FILLER_16_245
*302 FILLER_16_251
*303 FILLER_16_253
*304 FILLER_16_26
*305 FILLER_16_265
*306 FILLER_16_277
*307 FILLER_16_289
*308 FILLER_16_29
*309 FILLER_16_297
*310 FILLER_16_3
*311 FILLER_16_34
*312 FILLER_16_46
*313 FILLER_16_58
*314 FILLER_16_70
*315 FILLER_16_82
*316 FILLER_16_85
*317 FILLER_16_9
*318 FILLER_16_97
*319 FILLER_17_105
*320 FILLER_17_111
*321 FILLER_17_113
*322 FILLER_17_125
*323 FILLER_17_137
*324 FILLER_17_149
*325 FILLER_17_15
*326 FILLER_17_161
*327 FILLER_17_167
*328 FILLER_17_169
*329 FILLER_17_181
*330 FILLER_17_193
*331 FILLER_17_205
*332 FILLER_17_217
*333 FILLER_17_223
*334 FILLER_17_225
*335 FILLER_17_23
*336 FILLER_17_237
*337 FILLER_17_249
*338 FILLER_17_261
*339 FILLER_17_273
*340 FILLER_17_279
*341 FILLER_17_281
*342 FILLER_17_293
*343 FILLER_17_3
*344 FILLER_17_35
*345 FILLER_17_47
*346 FILLER_17_55
*347 FILLER_17_57
*348 FILLER_17_69
*349 FILLER_17_7
*350 FILLER_17_81
*351 FILLER_17_93
*352 FILLER_18_109
*353 FILLER_18_121
*354 FILLER_18_133
*355 FILLER_18_139
*356 FILLER_18_141
*357 FILLER_18_153
*358 FILLER_18_165
*359 FILLER_18_177
*360 FILLER_18_189
*361 FILLER_18_195
*362 FILLER_18_197
*363 FILLER_18_209
*364 FILLER_18_221
*365 FILLER_18_233
*366 FILLER_18_245
*367 FILLER_18_25
*368 FILLER_18_251
*369 FILLER_18_253
*370 FILLER_18_265
*371 FILLER_18_277
*372 FILLER_18_289
*373 FILLER_18_29
*374 FILLER_18_297
*375 FILLER_18_3
*376 FILLER_18_41
*377 FILLER_18_53
*378 FILLER_18_65
*379 FILLER_18_77
*380 FILLER_18_83
*381 FILLER_18_85
*382 FILLER_18_97
*383 FILLER_19_105
*384 FILLER_19_111
*385 FILLER_19_113
*386 FILLER_19_125
*387 FILLER_19_13
*388 FILLER_19_137
*389 FILLER_19_149
*390 FILLER_19_161
*391 FILLER_19_167
*392 FILLER_19_169
*393 FILLER_19_181
*394 FILLER_19_193
*395 FILLER_19_205
*396 FILLER_19_217
*397 FILLER_19_22
*398 FILLER_19_223
*399 FILLER_19_225
*400 FILLER_19_237
*401 FILLER_19_249
*402 FILLER_19_261
*403 FILLER_19_273
*404 FILLER_19_279
*405 FILLER_19_281
*406 FILLER_19_293
*407 FILLER_19_3
*408 FILLER_19_34
*409 FILLER_19_46
*410 FILLER_19_54
*411 FILLER_19_57
*412 FILLER_19_69
*413 FILLER_19_81
*414 FILLER_19_93
*415 FILLER_1_105
*416 FILLER_1_111
*417 FILLER_1_113
*418 FILLER_1_125
*419 FILLER_1_137
*420 FILLER_1_149
*421 FILLER_1_161
*422 FILLER_1_167
*423 FILLER_1_169
*424 FILLER_1_181
*425 FILLER_1_193
*426 FILLER_1_205
*427 FILLER_1_21
*428 FILLER_1_217
*429 FILLER_1_223
*430 FILLER_1_225
*431 FILLER_1_237
*432 FILLER_1_249
*433 FILLER_1_261
*434 FILLER_1_273
*435 FILLER_1_279
*436 FILLER_1_281
*437 FILLER_1_293
*438 FILLER_1_3
*439 FILLER_1_33
*440 FILLER_1_45
*441 FILLER_1_53
*442 FILLER_1_57
*443 FILLER_1_69
*444 FILLER_1_81
*445 FILLER_1_93
*446 FILLER_20_109
*447 FILLER_20_121
*448 FILLER_20_133
*449 FILLER_20_139
*450 FILLER_20_141
*451 FILLER_20_153
*452 FILLER_20_165
*453 FILLER_20_177
*454 FILLER_20_189
*455 FILLER_20_195
*456 FILLER_20_197
*457 FILLER_20_209
*458 FILLER_20_221
*459 FILLER_20_23
*460 FILLER_20_233
*461 FILLER_20_245
*462 FILLER_20_251
*463 FILLER_20_253
*464 FILLER_20_265
*465 FILLER_20_27
*466 FILLER_20_277
*467 FILLER_20_289
*468 FILLER_20_29
*469 FILLER_20_297
*470 FILLER_20_3
*471 FILLER_20_41
*472 FILLER_20_53
*473 FILLER_20_65
*474 FILLER_20_77
*475 FILLER_20_83
*476 FILLER_20_85
*477 FILLER_20_97
*478 FILLER_21_105
*479 FILLER_21_111
*480 FILLER_21_113
*481 FILLER_21_125
*482 FILLER_21_13
*483 FILLER_21_137
*484 FILLER_21_149
*485 FILLER_21_161
*486 FILLER_21_167
*487 FILLER_21_169
*488 FILLER_21_181
*489 FILLER_21_193
*490 FILLER_21_20
*491 FILLER_21_205
*492 FILLER_21_217
*493 FILLER_21_223
*494 FILLER_21_225
*495 FILLER_21_237
*496 FILLER_21_249
*497 FILLER_21_261
*498 FILLER_21_273
*499 FILLER_21_279
*500 FILLER_21_281
*501 FILLER_21_293
*502 FILLER_21_3
*503 FILLER_21_32
*504 FILLER_21_44
*505 FILLER_21_57
*506 FILLER_21_69
*507 FILLER_21_81
*508 FILLER_21_93
*509 FILLER_22_109
*510 FILLER_22_121
*511 FILLER_22_133
*512 FILLER_22_139
*513 FILLER_22_141
*514 FILLER_22_153
*515 FILLER_22_165
*516 FILLER_22_177
*517 FILLER_22_189
*518 FILLER_22_195
*519 FILLER_22_197
*520 FILLER_22_20
*521 FILLER_22_209
*522 FILLER_22_221
*523 FILLER_22_233
*524 FILLER_22_245
*525 FILLER_22_251
*526 FILLER_22_253
*527 FILLER_22_265
*528 FILLER_22_277
*529 FILLER_22_289
*530 FILLER_22_29
*531 FILLER_22_297
*532 FILLER_22_3
*533 FILLER_22_41
*534 FILLER_22_53
*535 FILLER_22_65
*536 FILLER_22_77
*537 FILLER_22_8
*538 FILLER_22_83
*539 FILLER_22_85
*540 FILLER_22_97
*541 FILLER_23_105
*542 FILLER_23_111
*543 FILLER_23_113
*544 FILLER_23_125
*545 FILLER_23_137
*546 FILLER_23_149
*547 FILLER_23_161
*548 FILLER_23_167
*549 FILLER_23_169
*550 FILLER_23_181
*551 FILLER_23_193
*552 FILLER_23_20
*553 FILLER_23_205
*554 FILLER_23_217
*555 FILLER_23_223
*556 FILLER_23_225
*557 FILLER_23_237
*558 FILLER_23_249
*559 FILLER_23_261
*560 FILLER_23_273
*561 FILLER_23_279
*562 FILLER_23_281
*563 FILLER_23_293
*564 FILLER_23_3
*565 FILLER_23_32
*566 FILLER_23_44
*567 FILLER_23_57
*568 FILLER_23_69
*569 FILLER_23_8
*570 FILLER_23_81
*571 FILLER_23_93
*572 FILLER_24_109
*573 FILLER_24_121
*574 FILLER_24_13
*575 FILLER_24_133
*576 FILLER_24_139
*577 FILLER_24_141
*578 FILLER_24_153
*579 FILLER_24_165
*580 FILLER_24_177
*581 FILLER_24_189
*582 FILLER_24_195
*583 FILLER_24_197
*584 FILLER_24_209
*585 FILLER_24_221
*586 FILLER_24_233
*587 FILLER_24_245
*588 FILLER_24_25
*589 FILLER_24_251
*590 FILLER_24_253
*591 FILLER_24_265
*592 FILLER_24_277
*593 FILLER_24_289
*594 FILLER_24_29
*595 FILLER_24_297
*596 FILLER_24_3
*597 FILLER_24_41
*598 FILLER_24_53
*599 FILLER_24_65
*600 FILLER_24_77
*601 FILLER_24_83
*602 FILLER_24_85
*603 FILLER_24_97
*604 FILLER_25_105
*605 FILLER_25_111
*606 FILLER_25_113
*607 FILLER_25_125
*608 FILLER_25_137
*609 FILLER_25_149
*610 FILLER_25_15
*611 FILLER_25_161
*612 FILLER_25_167
*613 FILLER_25_169
*614 FILLER_25_181
*615 FILLER_25_193
*616 FILLER_25_205
*617 FILLER_25_217
*618 FILLER_25_223
*619 FILLER_25_225
*620 FILLER_25_237
*621 FILLER_25_249
*622 FILLER_25_261
*623 FILLER_25_27
*624 FILLER_25_273
*625 FILLER_25_279
*626 FILLER_25_281
*627 FILLER_25_293
*628 FILLER_25_3
*629 FILLER_25_39
*630 FILLER_25_51
*631 FILLER_25_55
*632 FILLER_25_57
*633 FILLER_25_69
*634 FILLER_25_81
*635 FILLER_25_93
*636 FILLER_26_109
*637 FILLER_26_121
*638 FILLER_26_133
*639 FILLER_26_139
*640 FILLER_26_141
*641 FILLER_26_153
*642 FILLER_26_165
*643 FILLER_26_177
*644 FILLER_26_189
*645 FILLER_26_195
*646 FILLER_26_197
*647 FILLER_26_20
*648 FILLER_26_209
*649 FILLER_26_221
*650 FILLER_26_233
*651 FILLER_26_245
*652 FILLER_26_251
*653 FILLER_26_253
*654 FILLER_26_265
*655 FILLER_26_277
*656 FILLER_26_289
*657 FILLER_26_29
*658 FILLER_26_297
*659 FILLER_26_3
*660 FILLER_26_41
*661 FILLER_26_53
*662 FILLER_26_65
*663 FILLER_26_77
*664 FILLER_26_8
*665 FILLER_26_83
*666 FILLER_26_85
*667 FILLER_26_97
*668 FILLER_27_105
*669 FILLER_27_111
*670 FILLER_27_113
*671 FILLER_27_125
*672 FILLER_27_137
*673 FILLER_27_149
*674 FILLER_27_161
*675 FILLER_27_167
*676 FILLER_27_169
*677 FILLER_27_181
*678 FILLER_27_193
*679 FILLER_27_205
*680 FILLER_27_217
*681 FILLER_27_223
*682 FILLER_27_225
*683 FILLER_27_237
*684 FILLER_27_249
*685 FILLER_27_261
*686 FILLER_27_27
*687 FILLER_27_273
*688 FILLER_27_279
*689 FILLER_27_281
*690 FILLER_27_293
*691 FILLER_27_3
*692 FILLER_27_39
*693 FILLER_27_51
*694 FILLER_27_55
*695 FILLER_27_57
*696 FILLER_27_69
*697 FILLER_27_81
*698 FILLER_27_9
*699 FILLER_27_93
*700 FILLER_28_109
*701 FILLER_28_121
*702 FILLER_28_133
*703 FILLER_28_139
*704 FILLER_28_141
*705 FILLER_28_15
*706 FILLER_28_153
*707 FILLER_28_165
*708 FILLER_28_177
*709 FILLER_28_189
*710 FILLER_28_195
*711 FILLER_28_197
*712 FILLER_28_209
*713 FILLER_28_221
*714 FILLER_28_233
*715 FILLER_28_245
*716 FILLER_28_251
*717 FILLER_28_253
*718 FILLER_28_265
*719 FILLER_28_27
*720 FILLER_28_277
*721 FILLER_28_289
*722 FILLER_28_29
*723 FILLER_28_297
*724 FILLER_28_3
*725 FILLER_28_41
*726 FILLER_28_53
*727 FILLER_28_65
*728 FILLER_28_77
*729 FILLER_28_83
*730 FILLER_28_85
*731 FILLER_28_97
*732 FILLER_29_105
*733 FILLER_29_111
*734 FILLER_29_113
*735 FILLER_29_125
*736 FILLER_29_13
*737 FILLER_29_137
*738 FILLER_29_149
*739 FILLER_29_161
*740 FILLER_29_167
*741 FILLER_29_169
*742 FILLER_29_181
*743 FILLER_29_193
*744 FILLER_29_205
*745 FILLER_29_217
*746 FILLER_29_223
*747 FILLER_29_225
*748 FILLER_29_237
*749 FILLER_29_249
*750 FILLER_29_25
*751 FILLER_29_261
*752 FILLER_29_273
*753 FILLER_29_279
*754 FILLER_29_281
*755 FILLER_29_293
*756 FILLER_29_3
*757 FILLER_29_37
*758 FILLER_29_49
*759 FILLER_29_55
*760 FILLER_29_57
*761 FILLER_29_69
*762 FILLER_29_81
*763 FILLER_29_93
*764 FILLER_2_109
*765 FILLER_2_121
*766 FILLER_2_133
*767 FILLER_2_139
*768 FILLER_2_141
*769 FILLER_2_15
*770 FILLER_2_153
*771 FILLER_2_165
*772 FILLER_2_177
*773 FILLER_2_189
*774 FILLER_2_195
*775 FILLER_2_197
*776 FILLER_2_209
*777 FILLER_2_221
*778 FILLER_2_233
*779 FILLER_2_245
*780 FILLER_2_251
*781 FILLER_2_253
*782 FILLER_2_265
*783 FILLER_2_27
*784 FILLER_2_277
*785 FILLER_2_289
*786 FILLER_2_29
*787 FILLER_2_297
*788 FILLER_2_3
*789 FILLER_2_41
*790 FILLER_2_53
*791 FILLER_2_65
*792 FILLER_2_77
*793 FILLER_2_83
*794 FILLER_2_85
*795 FILLER_2_97
*796 FILLER_30_109
*797 FILLER_30_121
*798 FILLER_30_133
*799 FILLER_30_139
*800 FILLER_30_141
*801 FILLER_30_153
*802 FILLER_30_165
*803 FILLER_30_177
*804 FILLER_30_189
*805 FILLER_30_195
*806 FILLER_30_197
*807 FILLER_30_209
*808 FILLER_30_22
*809 FILLER_30_221
*810 FILLER_30_233
*811 FILLER_30_245
*812 FILLER_30_251
*813 FILLER_30_253
*814 FILLER_30_265
*815 FILLER_30_277
*816 FILLER_30_289
*817 FILLER_30_29
*818 FILLER_30_297
*819 FILLER_30_3
*820 FILLER_30_41
*821 FILLER_30_53
*822 FILLER_30_65
*823 FILLER_30_77
*824 FILLER_30_83
*825 FILLER_30_85
*826 FILLER_30_97
*827 FILLER_31_105
*828 FILLER_31_111
*829 FILLER_31_113
*830 FILLER_31_12
*831 FILLER_31_125
*832 FILLER_31_137
*833 FILLER_31_149
*834 FILLER_31_161
*835 FILLER_31_167
*836 FILLER_31_169
*837 FILLER_31_181
*838 FILLER_31_193
*839 FILLER_31_205
*840 FILLER_31_217
*841 FILLER_31_223
*842 FILLER_31_225
*843 FILLER_31_237
*844 FILLER_31_24
*845 FILLER_31_249
*846 FILLER_31_261
*847 FILLER_31_273
*848 FILLER_31_279
*849 FILLER_31_281
*850 FILLER_31_293
*851 FILLER_31_3
*852 FILLER_31_36
*853 FILLER_31_48
*854 FILLER_31_57
*855 FILLER_31_69
*856 FILLER_31_7
*857 FILLER_31_81
*858 FILLER_31_93
*859 FILLER_32_109
*860 FILLER_32_121
*861 FILLER_32_133
*862 FILLER_32_139
*863 FILLER_32_141
*864 FILLER_32_15
*865 FILLER_32_153
*866 FILLER_32_165
*867 FILLER_32_177
*868 FILLER_32_189
*869 FILLER_32_195
*870 FILLER_32_197
*871 FILLER_32_209
*872 FILLER_32_221
*873 FILLER_32_233
*874 FILLER_32_245
*875 FILLER_32_251
*876 FILLER_32_253
*877 FILLER_32_265
*878 FILLER_32_27
*879 FILLER_32_277
*880 FILLER_32_289
*881 FILLER_32_29
*882 FILLER_32_297
*883 FILLER_32_3
*884 FILLER_32_41
*885 FILLER_32_53
*886 FILLER_32_65
*887 FILLER_32_77
*888 FILLER_32_83
*889 FILLER_32_85
*890 FILLER_32_97
*891 FILLER_33_105
*892 FILLER_33_111
*893 FILLER_33_113
*894 FILLER_33_125
*895 FILLER_33_137
*896 FILLER_33_149
*897 FILLER_33_161
*898 FILLER_33_167
*899 FILLER_33_169
*900 FILLER_33_181
*901 FILLER_33_193
*902 FILLER_33_205
*903 FILLER_33_217
*904 FILLER_33_22
*905 FILLER_33_223
*906 FILLER_33_225
*907 FILLER_33_237
*908 FILLER_33_249
*909 FILLER_33_261
*910 FILLER_33_273
*911 FILLER_33_279
*912 FILLER_33_281
*913 FILLER_33_293
*914 FILLER_33_3
*915 FILLER_33_34
*916 FILLER_33_46
*917 FILLER_33_54
*918 FILLER_33_57
*919 FILLER_33_69
*920 FILLER_33_81
*921 FILLER_33_93
*922 FILLER_34_109
*923 FILLER_34_121
*924 FILLER_34_133
*925 FILLER_34_139
*926 FILLER_34_141
*927 FILLER_34_15
*928 FILLER_34_153
*929 FILLER_34_165
*930 FILLER_34_177
*931 FILLER_34_189
*932 FILLER_34_195
*933 FILLER_34_197
*934 FILLER_34_209
*935 FILLER_34_221
*936 FILLER_34_233
*937 FILLER_34_245
*938 FILLER_34_251
*939 FILLER_34_253
*940 FILLER_34_265
*941 FILLER_34_27
*942 FILLER_34_277
*943 FILLER_34_289
*944 FILLER_34_29
*945 FILLER_34_297
*946 FILLER_34_3
*947 FILLER_34_41
*948 FILLER_34_53
*949 FILLER_34_65
*950 FILLER_34_77
*951 FILLER_34_83
*952 FILLER_34_85
*953 FILLER_34_97
*954 FILLER_35_105
*955 FILLER_35_111
*956 FILLER_35_113
*957 FILLER_35_125
*958 FILLER_35_13
*959 FILLER_35_137
*960 FILLER_35_149
*961 FILLER_35_161
*962 FILLER_35_167
*963 FILLER_35_169
*964 FILLER_35_181
*965 FILLER_35_193
*966 FILLER_35_205
*967 FILLER_35_217
*968 FILLER_35_223
*969 FILLER_35_225
*970 FILLER_35_237
*971 FILLER_35_249
*972 FILLER_35_25
*973 FILLER_35_261
*974 FILLER_35_273
*975 FILLER_35_279
*976 FILLER_35_281
*977 FILLER_35_293
*978 FILLER_35_3
*979 FILLER_35_37
*980 FILLER_35_49
*981 FILLER_35_55
*982 FILLER_35_57
*983 FILLER_35_69
*984 FILLER_35_81
*985 FILLER_35_93
*986 FILLER_36_109
*987 FILLER_36_121
*988 FILLER_36_133
*989 FILLER_36_139
*990 FILLER_36_141
*991 FILLER_36_153
*992 FILLER_36_165
*993 FILLER_36_177
*994 FILLER_36_189
*995 FILLER_36_195
*996 FILLER_36_197
*997 FILLER_36_209
*998 FILLER_36_221
*999 FILLER_36_233
*1000 FILLER_36_24
*1001 FILLER_36_245
*1002 FILLER_36_251
*1003 FILLER_36_253
*1004 FILLER_36_265
*1005 FILLER_36_277
*1006 FILLER_36_289
*1007 FILLER_36_29
*1008 FILLER_36_297
*1009 FILLER_36_3
*1010 FILLER_36_41
*1011 FILLER_36_53
*1012 FILLER_36_65
*1013 FILLER_36_7
*1014 FILLER_36_77
*1015 FILLER_36_83
*1016 FILLER_36_85
*1017 FILLER_36_97
*1018 FILLER_37_105
*1019 FILLER_37_111
*1020 FILLER_37_113
*1021 FILLER_37_125
*1022 FILLER_37_137
*1023 FILLER_37_149
*1024 FILLER_37_15
*1025 FILLER_37_161
*1026 FILLER_37_167
*1027 FILLER_37_169
*1028 FILLER_37_181
*1029 FILLER_37_193
*1030 FILLER_37_205
*1031 FILLER_37_217
*1032 FILLER_37_223
*1033 FILLER_37_225
*1034 FILLER_37_237
*1035 FILLER_37_249
*1036 FILLER_37_261
*1037 FILLER_37_27
*1038 FILLER_37_273
*1039 FILLER_37_279
*1040 FILLER_37_281
*1041 FILLER_37_293
*1042 FILLER_37_3
*1043 FILLER_37_39
*1044 FILLER_37_51
*1045 FILLER_37_55
*1046 FILLER_37_57
*1047 FILLER_37_69
*1048 FILLER_37_81
*1049 FILLER_37_93
*1050 FILLER_38_109
*1051 FILLER_38_121
*1052 FILLER_38_133
*1053 FILLER_38_139
*1054 FILLER_38_141
*1055 FILLER_38_15
*1056 FILLER_38_153
*1057 FILLER_38_165
*1058 FILLER_38_177
*1059 FILLER_38_189
*1060 FILLER_38_195
*1061 FILLER_38_197
*1062 FILLER_38_209
*1063 FILLER_38_221
*1064 FILLER_38_233
*1065 FILLER_38_245
*1066 FILLER_38_251
*1067 FILLER_38_253
*1068 FILLER_38_265
*1069 FILLER_38_27
*1070 FILLER_38_277
*1071 FILLER_38_289
*1072 FILLER_38_29
*1073 FILLER_38_297
*1074 FILLER_38_3
*1075 FILLER_38_41
*1076 FILLER_38_53
*1077 FILLER_38_65
*1078 FILLER_38_77
*1079 FILLER_38_83
*1080 FILLER_38_85
*1081 FILLER_38_97
*1082 FILLER_39_105
*1083 FILLER_39_111
*1084 FILLER_39_113
*1085 FILLER_39_125
*1086 FILLER_39_13
*1087 FILLER_39_137
*1088 FILLER_39_149
*1089 FILLER_39_161
*1090 FILLER_39_167
*1091 FILLER_39_169
*1092 FILLER_39_181
*1093 FILLER_39_193
*1094 FILLER_39_205
*1095 FILLER_39_217
*1096 FILLER_39_223
*1097 FILLER_39_225
*1098 FILLER_39_237
*1099 FILLER_39_249
*1100 FILLER_39_25
*1101 FILLER_39_261
*1102 FILLER_39_273
*1103 FILLER_39_279
*1104 FILLER_39_281
*1105 FILLER_39_293
*1106 FILLER_39_3
*1107 FILLER_39_37
*1108 FILLER_39_49
*1109 FILLER_39_55
*1110 FILLER_39_57
*1111 FILLER_39_69
*1112 FILLER_39_81
*1113 FILLER_39_93
*1114 FILLER_3_105
*1115 FILLER_3_111
*1116 FILLER_3_113
*1117 FILLER_3_125
*1118 FILLER_3_137
*1119 FILLER_3_149
*1120 FILLER_3_161
*1121 FILLER_3_167
*1122 FILLER_3_169
*1123 FILLER_3_181
*1124 FILLER_3_193
*1125 FILLER_3_20
*1126 FILLER_3_205
*1127 FILLER_3_217
*1128 FILLER_3_223
*1129 FILLER_3_225
*1130 FILLER_3_237
*1131 FILLER_3_249
*1132 FILLER_3_261
*1133 FILLER_3_273
*1134 FILLER_3_279
*1135 FILLER_3_281
*1136 FILLER_3_293
*1137 FILLER_3_3
*1138 FILLER_3_32
*1139 FILLER_3_44
*1140 FILLER_3_57
*1141 FILLER_3_69
*1142 FILLER_3_8
*1143 FILLER_3_81
*1144 FILLER_3_93
*1145 FILLER_40_109
*1146 FILLER_40_121
*1147 FILLER_40_133
*1148 FILLER_40_139
*1149 FILLER_40_141
*1150 FILLER_40_15
*1151 FILLER_40_153
*1152 FILLER_40_165
*1153 FILLER_40_177
*1154 FILLER_40_189
*1155 FILLER_40_195
*1156 FILLER_40_197
*1157 FILLER_40_209
*1158 FILLER_40_221
*1159 FILLER_40_233
*1160 FILLER_40_245
*1161 FILLER_40_251
*1162 FILLER_40_253
*1163 FILLER_40_265
*1164 FILLER_40_27
*1165 FILLER_40_277
*1166 FILLER_40_289
*1167 FILLER_40_29
*1168 FILLER_40_297
*1169 FILLER_40_3
*1170 FILLER_40_41
*1171 FILLER_40_53
*1172 FILLER_40_65
*1173 FILLER_40_77
*1174 FILLER_40_83
*1175 FILLER_40_85
*1176 FILLER_40_97
*1177 FILLER_41_105
*1178 FILLER_41_111
*1179 FILLER_41_113
*1180 FILLER_41_125
*1181 FILLER_41_137
*1182 FILLER_41_149
*1183 FILLER_41_161
*1184 FILLER_41_167
*1185 FILLER_41_169
*1186 FILLER_41_181
*1187 FILLER_41_193
*1188 FILLER_41_205
*1189 FILLER_41_217
*1190 FILLER_41_223
*1191 FILLER_41_225
*1192 FILLER_41_23
*1193 FILLER_41_237
*1194 FILLER_41_249
*1195 FILLER_41_261
*1196 FILLER_41_273
*1197 FILLER_41_279
*1198 FILLER_41_281
*1199 FILLER_41_293
*1200 FILLER_41_3
*1201 FILLER_41_35
*1202 FILLER_41_47
*1203 FILLER_41_55
*1204 FILLER_41_57
*1205 FILLER_41_69
*1206 FILLER_41_81
*1207 FILLER_41_93
*1208 FILLER_42_109
*1209 FILLER_42_121
*1210 FILLER_42_133
*1211 FILLER_42_139
*1212 FILLER_42_141
*1213 FILLER_42_15
*1214 FILLER_42_153
*1215 FILLER_42_165
*1216 FILLER_42_177
*1217 FILLER_42_189
*1218 FILLER_42_195
*1219 FILLER_42_197
*1220 FILLER_42_209
*1221 FILLER_42_221
*1222 FILLER_42_233
*1223 FILLER_42_245
*1224 FILLER_42_251
*1225 FILLER_42_253
*1226 FILLER_42_265
*1227 FILLER_42_27
*1228 FILLER_42_277
*1229 FILLER_42_289
*1230 FILLER_42_29
*1231 FILLER_42_297
*1232 FILLER_42_3
*1233 FILLER_42_41
*1234 FILLER_42_53
*1235 FILLER_42_65
*1236 FILLER_42_77
*1237 FILLER_42_83
*1238 FILLER_42_85
*1239 FILLER_42_97
*1240 FILLER_43_105
*1241 FILLER_43_111
*1242 FILLER_43_113
*1243 FILLER_43_12
*1244 FILLER_43_125
*1245 FILLER_43_137
*1246 FILLER_43_149
*1247 FILLER_43_161
*1248 FILLER_43_167
*1249 FILLER_43_169
*1250 FILLER_43_181
*1251 FILLER_43_193
*1252 FILLER_43_205
*1253 FILLER_43_217
*1254 FILLER_43_223
*1255 FILLER_43_225
*1256 FILLER_43_237
*1257 FILLER_43_24
*1258 FILLER_43_249
*1259 FILLER_43_261
*1260 FILLER_43_273
*1261 FILLER_43_279
*1262 FILLER_43_281
*1263 FILLER_43_293
*1264 FILLER_43_3
*1265 FILLER_43_36
*1266 FILLER_43_48
*1267 FILLER_43_57
*1268 FILLER_43_69
*1269 FILLER_43_7
*1270 FILLER_43_81
*1271 FILLER_43_93
*1272 FILLER_44_109
*1273 FILLER_44_121
*1274 FILLER_44_133
*1275 FILLER_44_139
*1276 FILLER_44_141
*1277 FILLER_44_153
*1278 FILLER_44_165
*1279 FILLER_44_177
*1280 FILLER_44_189
*1281 FILLER_44_195
*1282 FILLER_44_197
*1283 FILLER_44_209
*1284 FILLER_44_21
*1285 FILLER_44_221
*1286 FILLER_44_233
*1287 FILLER_44_245
*1288 FILLER_44_251
*1289 FILLER_44_253
*1290 FILLER_44_265
*1291 FILLER_44_27
*1292 FILLER_44_277
*1293 FILLER_44_289
*1294 FILLER_44_29
*1295 FILLER_44_297
*1296 FILLER_44_3
*1297 FILLER_44_41
*1298 FILLER_44_53
*1299 FILLER_44_65
*1300 FILLER_44_77
*1301 FILLER_44_83
*1302 FILLER_44_85
*1303 FILLER_44_97
*1304 FILLER_45_105
*1305 FILLER_45_111
*1306 FILLER_45_113
*1307 FILLER_45_125
*1308 FILLER_45_137
*1309 FILLER_45_149
*1310 FILLER_45_15
*1311 FILLER_45_161
*1312 FILLER_45_167
*1313 FILLER_45_169
*1314 FILLER_45_181
*1315 FILLER_45_193
*1316 FILLER_45_205
*1317 FILLER_45_217
*1318 FILLER_45_223
*1319 FILLER_45_225
*1320 FILLER_45_237
*1321 FILLER_45_249
*1322 FILLER_45_261
*1323 FILLER_45_27
*1324 FILLER_45_273
*1325 FILLER_45_279
*1326 FILLER_45_281
*1327 FILLER_45_293
*1328 FILLER_45_3
*1329 FILLER_45_39
*1330 FILLER_45_51
*1331 FILLER_45_55
*1332 FILLER_45_57
*1333 FILLER_45_69
*1334 FILLER_45_81
*1335 FILLER_45_93
*1336 FILLER_46_109
*1337 FILLER_46_11
*1338 FILLER_46_121
*1339 FILLER_46_133
*1340 FILLER_46_139
*1341 FILLER_46_141
*1342 FILLER_46_153
*1343 FILLER_46_165
*1344 FILLER_46_177
*1345 FILLER_46_189
*1346 FILLER_46_195
*1347 FILLER_46_197
*1348 FILLER_46_209
*1349 FILLER_46_221
*1350 FILLER_46_23
*1351 FILLER_46_233
*1352 FILLER_46_245
*1353 FILLER_46_251
*1354 FILLER_46_253
*1355 FILLER_46_265
*1356 FILLER_46_27
*1357 FILLER_46_277
*1358 FILLER_46_289
*1359 FILLER_46_29
*1360 FILLER_46_297
*1361 FILLER_46_3
*1362 FILLER_46_41
*1363 FILLER_46_53
*1364 FILLER_46_65
*1365 FILLER_46_77
*1366 FILLER_46_83
*1367 FILLER_46_85
*1368 FILLER_46_97
*1369 FILLER_47_105
*1370 FILLER_47_111
*1371 FILLER_47_113
*1372 FILLER_47_125
*1373 FILLER_47_137
*1374 FILLER_47_149
*1375 FILLER_47_161
*1376 FILLER_47_167
*1377 FILLER_47_169
*1378 FILLER_47_181
*1379 FILLER_47_193
*1380 FILLER_47_205
*1381 FILLER_47_21
*1382 FILLER_47_217
*1383 FILLER_47_223
*1384 FILLER_47_225
*1385 FILLER_47_237
*1386 FILLER_47_249
*1387 FILLER_47_261
*1388 FILLER_47_273
*1389 FILLER_47_279
*1390 FILLER_47_281
*1391 FILLER_47_293
*1392 FILLER_47_3
*1393 FILLER_47_33
*1394 FILLER_47_45
*1395 FILLER_47_53
*1396 FILLER_47_57
*1397 FILLER_47_69
*1398 FILLER_47_81
*1399 FILLER_47_93
*1400 FILLER_48_109
*1401 FILLER_48_121
*1402 FILLER_48_133
*1403 FILLER_48_139
*1404 FILLER_48_141
*1405 FILLER_48_15
*1406 FILLER_48_153
*1407 FILLER_48_165
*1408 FILLER_48_177
*1409 FILLER_48_189
*1410 FILLER_48_195
*1411 FILLER_48_197
*1412 FILLER_48_209
*1413 FILLER_48_221
*1414 FILLER_48_233
*1415 FILLER_48_245
*1416 FILLER_48_251
*1417 FILLER_48_253
*1418 FILLER_48_265
*1419 FILLER_48_27
*1420 FILLER_48_277
*1421 FILLER_48_289
*1422 FILLER_48_29
*1423 FILLER_48_297
*1424 FILLER_48_3
*1425 FILLER_48_41
*1426 FILLER_48_53
*1427 FILLER_48_65
*1428 FILLER_48_77
*1429 FILLER_48_83
*1430 FILLER_48_85
*1431 FILLER_48_97
*1432 FILLER_49_10
*1433 FILLER_49_105
*1434 FILLER_49_111
*1435 FILLER_49_113
*1436 FILLER_49_125
*1437 FILLER_49_137
*1438 FILLER_49_149
*1439 FILLER_49_161
*1440 FILLER_49_167
*1441 FILLER_49_169
*1442 FILLER_49_181
*1443 FILLER_49_193
*1444 FILLER_49_205
*1445 FILLER_49_217
*1446 FILLER_49_22
*1447 FILLER_49_223
*1448 FILLER_49_225
*1449 FILLER_49_237
*1450 FILLER_49_249
*1451 FILLER_49_261
*1452 FILLER_49_273
*1453 FILLER_49_279
*1454 FILLER_49_281
*1455 FILLER_49_293
*1456 FILLER_49_3
*1457 FILLER_49_34
*1458 FILLER_49_46
*1459 FILLER_49_54
*1460 FILLER_49_57
*1461 FILLER_49_69
*1462 FILLER_49_81
*1463 FILLER_49_93
*1464 FILLER_4_109
*1465 FILLER_4_121
*1466 FILLER_4_13
*1467 FILLER_4_133
*1468 FILLER_4_139
*1469 FILLER_4_141
*1470 FILLER_4_153
*1471 FILLER_4_165
*1472 FILLER_4_177
*1473 FILLER_4_189
*1474 FILLER_4_195
*1475 FILLER_4_197
*1476 FILLER_4_209
*1477 FILLER_4_221
*1478 FILLER_4_233
*1479 FILLER_4_245
*1480 FILLER_4_25
*1481 FILLER_4_251
*1482 FILLER_4_253
*1483 FILLER_4_265
*1484 FILLER_4_277
*1485 FILLER_4_289
*1486 FILLER_4_29
*1487 FILLER_4_297
*1488 FILLER_4_3
*1489 FILLER_4_41
*1490 FILLER_4_53
*1491 FILLER_4_65
*1492 FILLER_4_77
*1493 FILLER_4_83
*1494 FILLER_4_85
*1495 FILLER_4_97
*1496 FILLER_50_10
*1497 FILLER_50_109
*1498 FILLER_50_121
*1499 FILLER_50_133
*1500 FILLER_50_139
*1501 FILLER_50_141
*1502 FILLER_50_153
*1503 FILLER_50_165
*1504 FILLER_50_177
*1505 FILLER_50_189
*1506 FILLER_50_195
*1507 FILLER_50_197
*1508 FILLER_50_209
*1509 FILLER_50_22
*1510 FILLER_50_221
*1511 FILLER_50_233
*1512 FILLER_50_245
*1513 FILLER_50_251
*1514 FILLER_50_253
*1515 FILLER_50_265
*1516 FILLER_50_277
*1517 FILLER_50_289
*1518 FILLER_50_29
*1519 FILLER_50_297
*1520 FILLER_50_3
*1521 FILLER_50_41
*1522 FILLER_50_53
*1523 FILLER_50_65
*1524 FILLER_50_77
*1525 FILLER_50_83
*1526 FILLER_50_85
*1527 FILLER_50_97
*1528 FILLER_51_105
*1529 FILLER_51_111
*1530 FILLER_51_113
*1531 FILLER_51_125
*1532 FILLER_51_137
*1533 FILLER_51_149
*1534 FILLER_51_15
*1535 FILLER_51_161
*1536 FILLER_51_167
*1537 FILLER_51_169
*1538 FILLER_51_181
*1539 FILLER_51_193
*1540 FILLER_51_205
*1541 FILLER_51_217
*1542 FILLER_51_223
*1543 FILLER_51_225
*1544 FILLER_51_237
*1545 FILLER_51_249
*1546 FILLER_51_261
*1547 FILLER_51_27
*1548 FILLER_51_273
*1549 FILLER_51_279
*1550 FILLER_51_281
*1551 FILLER_51_293
*1552 FILLER_51_3
*1553 FILLER_51_39
*1554 FILLER_51_51
*1555 FILLER_51_55
*1556 FILLER_51_57
*1557 FILLER_51_69
*1558 FILLER_51_81
*1559 FILLER_51_93
*1560 FILLER_52_109
*1561 FILLER_52_121
*1562 FILLER_52_133
*1563 FILLER_52_139
*1564 FILLER_52_141
*1565 FILLER_52_15
*1566 FILLER_52_153
*1567 FILLER_52_165
*1568 FILLER_52_177
*1569 FILLER_52_189
*1570 FILLER_52_195
*1571 FILLER_52_197
*1572 FILLER_52_209
*1573 FILLER_52_221
*1574 FILLER_52_233
*1575 FILLER_52_245
*1576 FILLER_52_251
*1577 FILLER_52_253
*1578 FILLER_52_265
*1579 FILLER_52_27
*1580 FILLER_52_277
*1581 FILLER_52_289
*1582 FILLER_52_29
*1583 FILLER_52_297
*1584 FILLER_52_3
*1585 FILLER_52_41
*1586 FILLER_52_53