*SPEF "ieee 1481-1999"
*DESIGN "user_module_349790606404354643"
*DATE "11:11:11 Fri 11 11, 1111"
*VENDOR "OpenRCX"
*PROGRAM "Parallel Extraction"
*VERSION "1.0"
*DESIGN_FLOW "NAME_SCOPE LOCAL" "PIN_CAP NONE"
*DIVIDER /
*DELIMITER :
*BUS_DELIMITER []
*T_UNIT 1 NS
*C_UNIT 1 PF
*R_UNIT 1 OHM
*L_UNIT 1 HENRY

*NAME_MAP
*1 io_in[0]
*2 io_in[1]
*3 io_in[2]
*4 io_in[3]
*5 io_in[4]
*6 io_in[5]
*7 io_in[6]
*8 io_in[7]
*9 io_out[0]
*10 io_out[1]
*11 io_out[2]
*12 io_out[3]
*13 io_out[4]
*14 io_out[5]
*15 io_out[6]
*16 io_out[7]
*19 _000_
*20 _001_
*21 _002_
*22 _003_
*23 _004_
*24 _005_
*25 _006_
*26 _007_
*27 _008_
*28 _009_
*29 _010_
*30 _011_
*31 _012_
*32 _013_
*33 _014_
*34 _015_
*35 _016_
*36 _017_
*37 _018_
*38 _019_
*39 _020_
*40 _021_
*41 _022_
*42 _023_
*43 _024_
*44 _025_
*45 _026_
*46 _027_
*47 _028_
*48 _029_
*49 _030_
*50 _031_
*51 _032_
*52 _033_
*53 _034_
*54 _035_
*55 _036_
*56 _037_
*57 _038_
*58 _039_
*59 _040_
*60 flipflop10\.d
*61 flipflop10\.q
*62 flipflop11\.q
*63 flipflop12\.q
*64 flipflop13\.q
*65 flipflop14\.q
*66 flipflop15\.q
*67 flipflop16\.q
*68 flipflop17\.q
*69 flipflop18\.d
*70 flipflop18\.q
*71 flipflop19\.d
*72 flipflop19\.q
*73 flipflop2\.q
*74 flipflop20\.d
*75 flipflop20\.q
*76 flipflop21\.d
*77 flipflop21\.q
*78 flipflop3\.q
*79 flipflop4\.q
*80 flipflop6\.q
*81 flipflop7\.q
*82 flipflop8\.q
*83 flipflop9\.q
*84 gate21\.a
*85 gate23\.out
*86 gate38\.out
*87 gate47\.out
*88 gate60\.out
*89 gate67\.out
*90 gate77\.out
*91 gate87\.out
*92 net1
*93 net2
*94 net3
*95 net4
*96 net5
*97 net6
*98 net7
*99 FILLER_0_109
*100 FILLER_0_113
*101 FILLER_0_125
*102 FILLER_0_137
*103 FILLER_0_141
*104 FILLER_0_15
*105 FILLER_0_153
*106 FILLER_0_165
*107 FILLER_0_169
*108 FILLER_0_181
*109 FILLER_0_193
*110 FILLER_0_197
*111 FILLER_0_209
*112 FILLER_0_221
*113 FILLER_0_225
*114 FILLER_0_237
*115 FILLER_0_249
*116 FILLER_0_253
*117 FILLER_0_265
*118 FILLER_0_27
*119 FILLER_0_277
*120 FILLER_0_281
*121 FILLER_0_29
*122 FILLER_0_293
*123 FILLER_0_3
*124 FILLER_0_41
*125 FILLER_0_53
*126 FILLER_0_57
*127 FILLER_0_69
*128 FILLER_0_81
*129 FILLER_0_85
*130 FILLER_0_97
*131 FILLER_10_109
*132 FILLER_10_121
*133 FILLER_10_13
*134 FILLER_10_133
*135 FILLER_10_139
*136 FILLER_10_141
*137 FILLER_10_153
*138 FILLER_10_165
*139 FILLER_10_177
*140 FILLER_10_189
*141 FILLER_10_195
*142 FILLER_10_197
*143 FILLER_10_209
*144 FILLER_10_21
*145 FILLER_10_221
*146 FILLER_10_233
*147 FILLER_10_245
*148 FILLER_10_251
*149 FILLER_10_253
*150 FILLER_10_265
*151 FILLER_10_27
*152 FILLER_10_277
*153 FILLER_10_289
*154 FILLER_10_29
*155 FILLER_10_297
*156 FILLER_10_3
*157 FILLER_10_41
*158 FILLER_10_53
*159 FILLER_10_65
*160 FILLER_10_77
*161 FILLER_10_83
*162 FILLER_10_85
*163 FILLER_10_97
*164 FILLER_11_105
*165 FILLER_11_11
*166 FILLER_11_111
*167 FILLER_11_113
*168 FILLER_11_125
*169 FILLER_11_137
*170 FILLER_11_149
*171 FILLER_11_16
*172 FILLER_11_161
*173 FILLER_11_167
*174 FILLER_11_169
*175 FILLER_11_181
*176 FILLER_11_193
*177 FILLER_11_205
*178 FILLER_11_217
*179 FILLER_11_223
*180 FILLER_11_225
*181 FILLER_11_237
*182 FILLER_11_249
*183 FILLER_11_261
*184 FILLER_11_273
*185 FILLER_11_279
*186 FILLER_11_28
*187 FILLER_11_281
*188 FILLER_11_293
*189 FILLER_11_3
*190 FILLER_11_40
*191 FILLER_11_52
*192 FILLER_11_57
*193 FILLER_11_69
*194 FILLER_11_81
*195 FILLER_11_93
*196 FILLER_12_109
*197 FILLER_12_121
*198 FILLER_12_133
*199 FILLER_12_139
*200 FILLER_12_14
*201 FILLER_12_141
*202 FILLER_12_153
*203 FILLER_12_165
*204 FILLER_12_177
*205 FILLER_12_189
*206 FILLER_12_195
*207 FILLER_12_197
*208 FILLER_12_209
*209 FILLER_12_221
*210 FILLER_12_233
*211 FILLER_12_245
*212 FILLER_12_251
*213 FILLER_12_253
*214 FILLER_12_26
*215 FILLER_12_265
*216 FILLER_12_277
*217 FILLER_12_289
*218 FILLER_12_29
*219 FILLER_12_297
*220 FILLER_12_3
*221 FILLER_12_41
*222 FILLER_12_53
*223 FILLER_12_65
*224 FILLER_12_77
*225 FILLER_12_83
*226 FILLER_12_85
*227 FILLER_12_97
*228 FILLER_13_105
*229 FILLER_13_111
*230 FILLER_13_113
*231 FILLER_13_125
*232 FILLER_13_137
*233 FILLER_13_149
*234 FILLER_13_161
*235 FILLER_13_167
*236 FILLER_13_169
*237 FILLER_13_181
*238 FILLER_13_193
*239 FILLER_13_205
*240 FILLER_13_217
*241 FILLER_13_223
*242 FILLER_13_225
*243 FILLER_13_237
*244 FILLER_13_249
*245 FILLER_13_261
*246 FILLER_13_273
*247 FILLER_13_279
*248 FILLER_13_281
*249 FILLER_13_29
*250 FILLER_13_293
*251 FILLER_13_3
*252 FILLER_13_49
*253 FILLER_13_55
*254 FILLER_13_57
*255 FILLER_13_69
*256 FILLER_13_81
*257 FILLER_13_9
*258 FILLER_13_93
*259 FILLER_14_109
*260 FILLER_14_121
*261 FILLER_14_133
*262 FILLER_14_139
*263 FILLER_14_141
*264 FILLER_14_15
*265 FILLER_14_153
*266 FILLER_14_165
*267 FILLER_14_177
*268 FILLER_14_189
*269 FILLER_14_195
*270 FILLER_14_197
*271 FILLER_14_209
*272 FILLER_14_221
*273 FILLER_14_233
*274 FILLER_14_245
*275 FILLER_14_251
*276 FILLER_14_253
*277 FILLER_14_265
*278 FILLER_14_27
*279 FILLER_14_277
*280 FILLER_14_289
*281 FILLER_14_29
*282 FILLER_14_297
*283 FILLER_14_3
*284 FILLER_14_41
*285 FILLER_14_53
*286 FILLER_14_65
*287 FILLER_14_77
*288 FILLER_14_83
*289 FILLER_14_85
*290 FILLER_14_97
*291 FILLER_15_105
*292 FILLER_15_111
*293 FILLER_15_113
*294 FILLER_15_125
*295 FILLER_15_137
*296 FILLER_15_149
*297 FILLER_15_15
*298 FILLER_15_161
*299 FILLER_15_167
*300 FILLER_15_169
*301 FILLER_15_181
*302 FILLER_15_193
*303 FILLER_15_205
*304 FILLER_15_217
*305 FILLER_15_223
*306 FILLER_15_225
*307 FILLER_15_237
*308 FILLER_15_249
*309 FILLER_15_261
*310 FILLER_15_27
*311 FILLER_15_273
*312 FILLER_15_279
*313 FILLER_15_281
*314 FILLER_15_293
*315 FILLER_15_3
*316 FILLER_15_39
*317 FILLER_15_51
*318 FILLER_15_55
*319 FILLER_15_57
*320 FILLER_15_69
*321 FILLER_15_81
*322 FILLER_15_93
*323 FILLER_16_109
*324 FILLER_16_121
*325 FILLER_16_133
*326 FILLER_16_139
*327 FILLER_16_141
*328 FILLER_16_153
*329 FILLER_16_165
*330 FILLER_16_177
*331 FILLER_16_189
*332 FILLER_16_195
*333 FILLER_16_197
*334 FILLER_16_20
*335 FILLER_16_209
*336 FILLER_16_221
*337 FILLER_16_233
*338 FILLER_16_245
*339 FILLER_16_251
*340 FILLER_16_253
*341 FILLER_16_265
*342 FILLER_16_277
*343 FILLER_16_289
*344 FILLER_16_29
*345 FILLER_16_297
*346 FILLER_16_3
*347 FILLER_16_47
*348 FILLER_16_60
*349 FILLER_16_72
*350 FILLER_16_8
*351 FILLER_16_85
*352 FILLER_16_97
*353 FILLER_17_105
*354 FILLER_17_111
*355 FILLER_17_113
*356 FILLER_17_125
*357 FILLER_17_137
*358 FILLER_17_149
*359 FILLER_17_15
*360 FILLER_17_161
*361 FILLER_17_167
*362 FILLER_17_169
*363 FILLER_17_181
*364 FILLER_17_193
*365 FILLER_17_205
*366 FILLER_17_217
*367 FILLER_17_223
*368 FILLER_17_225
*369 FILLER_17_23
*370 FILLER_17_237
*371 FILLER_17_249
*372 FILLER_17_261
*373 FILLER_17_273
*374 FILLER_17_279
*375 FILLER_17_281
*376 FILLER_17_293
*377 FILLER_17_3
*378 FILLER_17_42
*379 FILLER_17_54
*380 FILLER_17_57
*381 FILLER_17_69
*382 FILLER_17_81
*383 FILLER_17_93
*384 FILLER_18_109
*385 FILLER_18_121
*386 FILLER_18_133
*387 FILLER_18_139
*388 FILLER_18_141
*389 FILLER_18_153
*390 FILLER_18_165
*391 FILLER_18_177
*392 FILLER_18_189
*393 FILLER_18_195
*394 FILLER_18_197
*395 FILLER_18_209
*396 FILLER_18_221
*397 FILLER_18_233
*398 FILLER_18_245
*399 FILLER_18_251
*400 FILLER_18_253
*401 FILLER_18_26
*402 FILLER_18_265
*403 FILLER_18_277
*404 FILLER_18_289
*405 FILLER_18_29
*406 FILLER_18_297
*407 FILLER_18_3
*408 FILLER_18_47
*409 FILLER_18_59
*410 FILLER_18_71
*411 FILLER_18_83
*412 FILLER_18_85
*413 FILLER_18_9
*414 FILLER_18_97
*415 FILLER_19_105
*416 FILLER_19_111
*417 FILLER_19_113
*418 FILLER_19_125
*419 FILLER_19_137
*420 FILLER_19_149
*421 FILLER_19_15
*422 FILLER_19_161
*423 FILLER_19_167
*424 FILLER_19_169
*425 FILLER_19_181
*426 FILLER_19_193
*427 FILLER_19_205
*428 FILLER_19_217
*429 FILLER_19_223
*430 FILLER_19_225
*431 FILLER_19_23
*432 FILLER_19_237
*433 FILLER_19_249
*434 FILLER_19_261
*435 FILLER_19_273
*436 FILLER_19_279
*437 FILLER_19_281
*438 FILLER_19_293
*439 FILLER_19_3
*440 FILLER_19_40
*441 FILLER_19_52
*442 FILLER_19_57
*443 FILLER_19_69
*444 FILLER_19_81
*445 FILLER_19_93
*446 FILLER_1_105
*447 FILLER_1_111
*448 FILLER_1_113
*449 FILLER_1_125
*450 FILLER_1_137
*451 FILLER_1_149
*452 FILLER_1_161
*453 FILLER_1_167
*454 FILLER_1_169
*455 FILLER_1_181
*456 FILLER_1_193
*457 FILLER_1_205
*458 FILLER_1_21
*459 FILLER_1_217
*460 FILLER_1_223
*461 FILLER_1_225
*462 FILLER_1_237
*463 FILLER_1_249
*464 FILLER_1_261
*465 FILLER_1_273
*466 FILLER_1_279
*467 FILLER_1_281
*468 FILLER_1_293
*469 FILLER_1_3
*470 FILLER_1_33
*471 FILLER_1_45
*472 FILLER_1_53
*473 FILLER_1_57
*474 FILLER_1_69
*475 FILLER_1_81
*476 FILLER_1_93
*477 FILLER_20_109
*478 FILLER_20_121
*479 FILLER_20_133
*480 FILLER_20_139
*481 FILLER_20_141
*482 FILLER_20_153
*483 FILLER_20_165
*484 FILLER_20_177
*485 FILLER_20_189
*486 FILLER_20_195
*487 FILLER_20_197
*488 FILLER_20_20
*489 FILLER_20_209
*490 FILLER_20_221
*491 FILLER_20_233
*492 FILLER_20_245
*493 FILLER_20_251
*494 FILLER_20_253
*495 FILLER_20_265
*496 FILLER_20_277
*497 FILLER_20_289
*498 FILLER_20_29
*499 FILLER_20_297
*500 FILLER_20_3
*501 FILLER_20_47
*502 FILLER_20_59
*503 FILLER_20_78
*504 FILLER_20_8
*505 FILLER_20_85
*506 FILLER_20_97
*507 FILLER_21_105
*508 FILLER_21_111
*509 FILLER_21_113
*510 FILLER_21_125
*511 FILLER_21_137
*512 FILLER_21_149
*513 FILLER_21_15
*514 FILLER_21_161
*515 FILLER_21_167
*516 FILLER_21_169
*517 FILLER_21_181
*518 FILLER_21_193
*519 FILLER_21_205
*520 FILLER_21_217
*521 FILLER_21_223
*522 FILLER_21_225
*523 FILLER_21_237
*524 FILLER_21_249
*525 FILLER_21_261
*526 FILLER_21_27
*527 FILLER_21_273
*528 FILLER_21_279
*529 FILLER_21_281
*530 FILLER_21_293
*531 FILLER_21_3
*532 FILLER_21_39
*533 FILLER_21_51
*534 FILLER_21_55
*535 FILLER_21_57
*536 FILLER_21_69
*537 FILLER_21_81
*538 FILLER_21_93
*539 FILLER_22_109
*540 FILLER_22_121
*541 FILLER_22_133
*542 FILLER_22_139
*543 FILLER_22_141
*544 FILLER_22_15
*545 FILLER_22_153
*546 FILLER_22_165
*547 FILLER_22_177
*548 FILLER_22_189
*549 FILLER_22_195
*550 FILLER_22_197
*551 FILLER_22_209
*552 FILLER_22_221
*553 FILLER_22_233
*554 FILLER_22_245
*555 FILLER_22_251
*556 FILLER_22_253
*557 FILLER_22_265
*558 FILLER_22_27
*559 FILLER_22_277
*560 FILLER_22_289
*561 FILLER_22_29
*562 FILLER_22_297
*563 FILLER_22_3
*564 FILLER_22_33
*565 FILLER_22_50
*566 FILLER_22_72
*567 FILLER_22_85
*568 FILLER_22_97
*569 FILLER_23_103
*570 FILLER_23_111
*571 FILLER_23_113
*572 FILLER_23_125
*573 FILLER_23_137
*574 FILLER_23_149
*575 FILLER_23_15
*576 FILLER_23_161
*577 FILLER_23_167
*578 FILLER_23_169
*579 FILLER_23_181
*580 FILLER_23_193
*581 FILLER_23_205
*582 FILLER_23_217
*583 FILLER_23_223
*584 FILLER_23_225
*585 FILLER_23_237
*586 FILLER_23_249
*587 FILLER_23_261
*588 FILLER_23_27
*589 FILLER_23_273
*590 FILLER_23_279
*591 FILLER_23_281
*592 FILLER_23_293
*593 FILLER_23_3
*594 FILLER_23_33
*595 FILLER_23_50
*596 FILLER_23_57
*597 FILLER_23_79
*598 FILLER_23_91
*599 FILLER_24_109
*600 FILLER_24_121
*601 FILLER_24_133
*602 FILLER_24_139
*603 FILLER_24_141
*604 FILLER_24_153
*605 FILLER_24_165
*606 FILLER_24_177
*607 FILLER_24_189
*608 FILLER_24_195
*609 FILLER_24_197
*610 FILLER_24_209
*611 FILLER_24_21
*612 FILLER_24_221
*613 FILLER_24_233
*614 FILLER_24_245
*615 FILLER_24_251
*616 FILLER_24_253
*617 FILLER_24_265
*618 FILLER_24_27
*619 FILLER_24_277
*620 FILLER_24_289
*621 FILLER_24_29
*622 FILLER_24_297
*623 FILLER_24_3
*624 FILLER_24_41
*625 FILLER_24_59
*626 FILLER_24_71
*627 FILLER_24_83
*628 FILLER_24_85
*629 FILLER_24_9
*630 FILLER_24_97
*631 FILLER_25_110
*632 FILLER_25_113
*633 FILLER_25_125
*634 FILLER_25_137
*635 FILLER_25_149
*636 FILLER_25_15
*637 FILLER_25_161
*638 FILLER_25_167
*639 FILLER_25_169
*640 FILLER_25_181
*641 FILLER_25_193
*642 FILLER_25_205
*643 FILLER_25_217
*644 FILLER_25_223
*645 FILLER_25_225
*646 FILLER_25_237
*647 FILLER_25_249
*648 FILLER_25_261
*649 FILLER_25_27
*650 FILLER_25_273
*651 FILLER_25_279
*652 FILLER_25_281
*653 FILLER_25_293
*654 FILLER_25_3
*655 FILLER_25_39
*656 FILLER_25_51
*657 FILLER_25_55
*658 FILLER_25_57
*659 FILLER_25_69
*660 FILLER_25_81
*661 FILLER_25_98
*662 FILLER_26_109
*663 FILLER_26_121
*664 FILLER_26_133
*665 FILLER_26_139
*666 FILLER_26_141
*667 FILLER_26_153
*668 FILLER_26_165
*669 FILLER_26_177
*670 FILLER_26_189
*671 FILLER_26_195
*672 FILLER_26_197
*673 FILLER_26_209
*674 FILLER_26_21
*675 FILLER_26_221
*676 FILLER_26_233
*677 FILLER_26_245
*678 FILLER_26_251
*679 FILLER_26_253
*680 FILLER_26_265
*681 FILLER_26_27
*682 FILLER_26_277
*683 FILLER_26_289
*684 FILLER_26_29
*685 FILLER_26_297
*686 FILLER_26_3
*687 FILLER_26_35
*688 FILLER_26_45
*689 FILLER_26_57
*690 FILLER_26_69
*691 FILLER_26_81
*692 FILLER_26_85
*693 FILLER_26_9
*694 FILLER_26_97
*695 FILLER_27_105
*696 FILLER_27_11
*697 FILLER_27_111
*698 FILLER_27_113
*699 FILLER_27_125
*700 FILLER_27_137
*701 FILLER_27_149
*702 FILLER_27_161
*703 FILLER_27_167
*704 FILLER_27_169
*705 FILLER_27_181
*706 FILLER_27_193
*707 FILLER_27_205
*708 FILLER_27_217
*709 FILLER_27_223
*710 FILLER_27_225
*711 FILLER_27_23
*712 FILLER_27_237
*713 FILLER_27_249
*714 FILLER_27_261
*715 FILLER_27_273
*716 FILLER_27_279
*717 FILLER_27_281
*718 FILLER_27_293
*719 FILLER_27_3
*720 FILLER_27_35
*721 FILLER_27_46
*722 FILLER_27_54
*723 FILLER_27_57
*724 FILLER_27_69
*725 FILLER_27_81
*726 FILLER_27_93
*727 FILLER_28_109
*728 FILLER_28_121
*729 FILLER_28_133
*730 FILLER_28_139
*731 FILLER_28_141
*732 FILLER_28_15
*733 FILLER_28_153
*734 FILLER_28_165
*735 FILLER_28_177
*736 FILLER_28_189
*737 FILLER_28_195
*738 FILLER_28_197
*739 FILLER_28_209
*740 FILLER_28_221
*741 FILLER_28_233
*742 FILLER_28_245
*743 FILLER_28_251
*744 FILLER_28_253
*745 FILLER_28_265
*746 FILLER_28_27
*747 FILLER_28_277
*748 FILLER_28_289
*749 FILLER_28_29
*750 FILLER_28_297
*751 FILLER_28_3
*752 FILLER_28_41
*753 FILLER_28_56
*754 FILLER_28_69
*755 FILLER_28_82
*756 FILLER_28_85
*757 FILLER_28_97
*758 FILLER_29_101
*759 FILLER_29_109
*760 FILLER_29_113
*761 FILLER_29_125
*762 FILLER_29_137
*763 FILLER_29_149
*764 FILLER_29_15
*765 FILLER_29_161
*766 FILLER_29_167
*767 FILLER_29_169
*768 FILLER_29_181
*769 FILLER_29_193
*770 FILLER_29_205
*771 FILLER_29_217
*772 FILLER_29_223
*773 FILLER_29_225
*774 FILLER_29_237
*775 FILLER_29_249
*776 FILLER_29_26
*777 FILLER_29_261
*778 FILLER_29_273
*779 FILLER_29_279
*780 FILLER_29_281
*781 FILLER_29_293
*782 FILLER_29_3
*783 FILLER_29_38
*784 FILLER_29_50
*785 FILLER_29_57
*786 FILLER_29_69
*787 FILLER_29_77
*788 FILLER_29_89
*789 FILLER_2_109
*790 FILLER_2_121
*791 FILLER_2_133
*792 FILLER_2_139
*793 FILLER_2_141
*794 FILLER_2_153
*795 FILLER_2_165
*796 FILLER_2_177
*797 FILLER_2_189
*798 FILLER_2_195
*799 FILLER_2_197
*800 FILLER_2_209
*801 FILLER_2_21
*802 FILLER_2_221
*803 FILLER_2_233
*804 FILLER_2_245
*805 FILLER_2_251
*806 FILLER_2_253
*807 FILLER_2_265
*808 FILLER_2_27
*809 FILLER_2_277
*810 FILLER_2_289
*811 FILLER_2_29
*812 FILLER_2_297
*813 FILLER_2_3
*814 FILLER_2_41
*815 FILLER_2_53
*816 FILLER_2_65
*817 FILLER_2_77
*818 FILLER_2_83
*819 FILLER_2_85
*820 FILLER_2_9
*821 FILLER_2_97
*822 FILLER_30_109
*823 FILLER_30_121
*824 FILLER_30_133
*825 FILLER_30_139
*826 FILLER_30_141
*827 FILLER_30_15
*828 FILLER_30_153
*829 FILLER_30_165
*830 FILLER_30_177
*831 FILLER_30_189
*832 FILLER_30_195
*833 FILLER_30_197
*834 FILLER_30_209
*835 FILLER_30_221
*836 FILLER_30_233
*837 FILLER_30_245
*838 FILLER_30_251
*839 FILLER_30_253
*840 FILLER_30_26
*841 FILLER_30_265
*842 FILLER_30_277
*843 FILLER_30_289
*844 FILLER_30_29
*845 FILLER_30_297
*846 FILLER_30_3
*847 FILLER_30_41
*848 FILLER_30_45
*849 FILLER_30_64
*850 FILLER_30_76
*851 FILLER_30_85
*852 FILLER_30_97
*853 FILLER_31_104
*854 FILLER_31_113
*855 FILLER_31_125
*856 FILLER_31_137
*857 FILLER_31_149
*858 FILLER_31_161
*859 FILLER_31_167
*860 FILLER_31_169
*861 FILLER_31_181
*862 FILLER_31_193
*863 FILLER_31_205
*864 FILLER_31_217
*865 FILLER_31_223
*866 FILLER_31_225
*867 FILLER_31_237
*868 FILLER_31_24
*869 FILLER_31_249
*870 FILLER_31_261
*871 FILLER_31_273
*872 FILLER_31_279
*873 FILLER_31_281
*874 FILLER_31_293
*875 FILLER_31_3
*876 FILLER_31_36
*877 FILLER_31_48
*878 FILLER_31_57
*879 FILLER_31_68
*880 FILLER_31_80
*881 FILLER_31_92
*882 FILLER_32_109
*883 FILLER_32_121
*884 FILLER_32_133
*885 FILLER_32_139
*886 FILLER_32_141
*887 FILLER_32_153
*888 FILLER_32_165
*889 FILLER_32_177
*890 FILLER_32_189
*891 FILLER_32_195
*892 FILLER_32_197
*893 FILLER_32_209
*894 FILLER_32_221
*895 FILLER_32_233
*896 FILLER_32_24
*897 FILLER_32_245
*898 FILLER_32_251
*899 FILLER_32_253
*900 FILLER_32_265
*901 FILLER_32_277
*902 FILLER_32_289
*903 FILLER_32_29
*904 FILLER_32_297
*905 FILLER_32_3
*906 FILLER_32_41
*907 FILLER_32_66
*908 FILLER_32_78
*909 FILLER_32_85
*910 FILLER_32_97
*911 FILLER_33_105
*912 FILLER_33_111
*913 FILLER_33_113
*914 FILLER_33_125
*915 FILLER_33_137
*916 FILLER_33_149
*917 FILLER_33_15
*918 FILLER_33_161
*919 FILLER_33_167
*920 FILLER_33_169
*921 FILLER_33_181
*922 FILLER_33_193
*923 FILLER_33_20
*924 FILLER_33_205
*925 FILLER_33_217
*926 FILLER_33_223
*927 FILLER_33_225
*928 FILLER_33_237
*929 FILLER_33_249
*930 FILLER_33_261
*931 FILLER_33_273
*932 FILLER_33_279
*933 FILLER_33_281
*934 FILLER_33_293
*935 FILLER_33_3
*936 FILLER_33_32
*937 FILLER_33_44
*938 FILLER_33_57
*939 FILLER_33_69
*940 FILLER_33_81
*941 FILLER_33_93
*942 FILLER_34_109
*943 FILLER_34_121
*944 FILLER_34_133
*945 FILLER_34_139
*946 FILLER_34_141
*947 FILLER_34_153
*948 FILLER_34_165
*949 FILLER_34_177
*950 FILLER_34_189
*951 FILLER_34_19
*952 FILLER_34_195
*953 FILLER_34_197
*954 FILLER_34_209
*955 FILLER_34_221
*956 FILLER_34_233
*957 FILLER_34_245
*958 FILLER_34_251
*959 FILLER_34_253
*960 FILLER_34_26
*961 FILLER_34_265
*962 FILLER_34_277
*963 FILLER_34_289
*964 FILLER_34_29
*965 FILLER_34_297
*966 FILLER_34_3
*967 FILLER_34_35
*968 FILLER_34_43
*969 FILLER_34_63
*970 FILLER_34_75
*971 FILLER_34_83
*972 FILLER_34_85
*973 FILLER_34_97
*974 FILLER_35_101
*975 FILLER_35_109
*976 FILLER_35_113
*977 FILLER_35_125
*978 FILLER_35_137
*979 FILLER_35_149
*980 FILLER_35_15
*981 FILLER_35_161
*982 FILLER_35_167
*983 FILLER_35_169
*984 FILLER_35_181
*985 FILLER_35_193
*986 FILLER_35_205
*987 FILLER_35_217
*988 FILLER_35_223
*989 FILLER_35_225
*990 FILLER_35_23
*991 FILLER_35_237
*992 FILLER_35_249
*993 FILLER_35_261
*994 FILLER_35_273
*995 FILLER_35_279
*996 FILLER_35_281
*997 FILLER_35_293
*998 FILLER_35_3
*999 FILLER_35_35
*1000 FILLER_35_47
*1001 FILLER_35_55
*1002 FILLER_35_57
*1003 FILLER_35_69
*1004 FILLER_35_77
*1005 FILLER_35_89
*1006 FILLER_36_109
*1007 FILLER_36_121
*1008 FILLER_36_133
*1009 FILLER_36_139
*1010 FILLER_36_141
*1011 FILLER_36_15
*1012 FILLER_36_153
*1013 FILLER_36_165
*1014 FILLER_36_177
*1015 FILLER_36_189
*1016 FILLER_36_195
*1017 FILLER_36_197
*1018 FILLER_36_209
*1019 FILLER_36_22
*1020 FILLER_36_221
*1021 FILLER_36_233
*1022 FILLER_36_245
*1023 FILLER_36_251
*1024 FILLER_36_253
*1025 FILLER_36_265
*1026 FILLER_36_277
*1027 FILLER_36_289
*1028 FILLER_36_29
*1029 FILLER_36_297
*1030 FILLER_36_3
*1031 FILLER_36_41
*1032 FILLER_36_53
*1033 FILLER_36_65
*1034 FILLER_36_77
*1035 FILLER_36_83
*1036 FILLER_36_85
*1037 FILLER_36_97
*1038 FILLER_37_102
*1039 FILLER_37_110
*1040 FILLER_37_113
*1041 FILLER_37_125
*1042 FILLER_37_137
*1043 FILLER_37_149
*1044 FILLER_37_15
*1045 FILLER_37_161
*1046 FILLER_37_167
*1047 FILLER_37_169
*1048 FILLER_37_181
*1049 FILLER_37_193
*1050 FILLER_37_205
*1051 FILLER_37_217
*1052 FILLER_37_223
*1053 FILLER_37_225
*1054 FILLER_37_237
*1055 FILLER_37_249
*1056 FILLER_37_261
*1057 FILLER_37_27
*1058 FILLER_37_273
*1059 FILLER_37_279
*1060 FILLER_37_281
*1061 FILLER_37_293
*1062 FILLER_37_3
*1063 FILLER_37_38
*1064 FILLER_37_46
*1065 FILLER_37_54
*1066 FILLER_37_57
*1067 FILLER_37_66
*1068 FILLER_37_78
*1069 FILLER_37_90
*1070 FILLER_38_109
*1071 FILLER_38_121
*1072 FILLER_38_133
*1073 FILLER_38_139
*1074 FILLER_38_141
*1075 FILLER_38_15
*1076 FILLER_38_153
*1077 FILLER_38_165
*1078 FILLER_38_177
*1079 FILLER_38_189
*1080 FILLER_38_195
*1081 FILLER_38_197
*1082 FILLER_38_209
*1083 FILLER_38_221
*1084 FILLER_38_233
*1085 FILLER_38_245
*1086 FILLER_38_251
*1087 FILLER_38_253
*1088 FILLER_38_265
*1089 FILLER_38_27
*1090 FILLER_38_277
*1091 FILLER_38_289
*1092 FILLER_38_29
*1093 FILLER_38_297
*1094 FILLER_38_3
*1095 FILLER_38_38
*1096 FILLER_38_44
*1097 FILLER_38_52
*1098 FILLER_38_62
*1099 FILLER_38_68
*1100 FILLER_38_75
*1101 FILLER_38_83
*1102 FILLER_38_85
*1103 FILLER_38_97
*1104 FILLER_39_105
*1105 FILLER_39_111
*1106 FILLER_39_113
*1107 FILLER_39_125
*1108 FILLER_39_137
*1109 FILLER_39_149
*1110 FILLER_39_15
*1111 FILLER_39_161
*1112 FILLER_39_167
*1113 FILLER_39_169
*1114 FILLER_39_181
*1115 FILLER_39_193
*1116 FILLER_39_205
*1117 FILLER_39_217
*1118 FILLER_39_223
*1119 FILLER_39_225
*1120 FILLER_39_237
*1121 FILLER_39_24
*1122 FILLER_39_249
*1123 FILLER_39_261
*1124 FILLER_39_273
*1125 FILLER_39_279
*1126 FILLER_39_281
*1127 FILLER_39_293
*1128 FILLER_39_3
*1129 FILLER_39_33
*1130 FILLER_39_40
*1131 FILLER_39_47
*1132 FILLER_39_55
*1133 FILLER_39_57
*1134 FILLER_39_69
*1135 FILLER_39_81
*1136 FILLER_39_93
*1137 FILLER_3_105
*1138 FILLER_3_111
*1139 FILLER_3_113
*1140 FILLER_3_125
*1141 FILLER_3_137
*1142 FILLER_3_149
*1143 FILLER_3_15
*1144 FILLER_3_161
*1145 FILLER_3_167
*1146 FILLER_3_169
*1147 FILLER_3_181
*1148 FILLER_3_193
*1149 FILLER_3_205
*1150 FILLER_3_217
*1151 FILLER_3_223
*1152 FILLER_3_225
*1153 FILLER_3_237
*1154 FILLER_3_249
*1155 FILLER_3_261
*1156 FILLER_3_27
*1157 FILLER_3_273
*1158 FILLER_3_279
*1159 FILLER_3_281
*1160 FILLER_3_293
*1161 FILLER_3_3
*1162 FILLER_3_39
*1163 FILLER_3_51
*1164 FILLER_3_55
*1165 FILLER_3_57
*1166 FILLER_3_69
*1167 FILLER_3_81
*1168 FILLER_3_93
*1169 FILLER_40_109
*1170 FILLER_40_121
*1171 FILLER_40_133
*1172 FILLER_40_139
*1173 FILLER_40_141
*1174 FILLER_40_15
*1175 FILLER_40_153
*1176 FILLER_40_165
*1177 FILLER_40_177
*1178 FILLER_40_189
*1179 FILLER_40_195
*1180 FILLER_40_197
*1181 FILLER_40_209
*1182 FILLER_40_221
*1183 FILLER_40_233
*1184 FILLER_40_245
*1185 FILLER_40_251
*1186 FILLER_40_253
*1187 FILLER_40_26
*1188 FILLER_40_265
*1189 FILLER_40_277
*1190 FILLER_40_289
*1191 FILLER_40_29
*1192 FILLER_40_297
*1193 FILLER_40_3
*1194 FILLER_40_33
*1195 FILLER_40_40
*1196 FILLER_40_52
*1197 FILLER_40_64
*1198 FILLER_40_76
*1199 FILLER_40_85
*1200 FILLER_40_97
*1201 FILLER_41_111
*1202 FILLER_41_113
*1203 FILLER_41_125
*1204 FILLER_41_137
*1205 FILLER_41_149
*1206 FILLER_41_15
*1207 FILLER_41_161
*1208 FILLER_41_167
*1209 FILLER_41_169
*1210 FILLER_41_181
*1211 FILLER_41_193
*1212 FILLER_41_205
*1213 FILLER_41_217
*1214 FILLER_41_223
*1215 FILLER_41_225
*1216 FILLER_41_237
*1217 FILLER_41_249
*1218 FILLER_41_261
*1219 FILLER_41_273
*1220 FILLER_41_279
*1221 FILLER_41_281
*1222 FILLER_41_293
*1223 FILLER_41_3
*1224 FILLER_41_30
*1225 FILLER_41_42
*1226 FILLER_41_53
*1227 FILLER_41_57
*1228 FILLER_41_63
*1229 FILLER_41_75
*1230 FILLER_41_87
*1231 FILLER_41_99
*1232 FILLER_42_109
*1233 FILLER_42_121
*1234 FILLER_42_133
*1235 FILLER_42_139
*1236 FILLER_42_141
*1237 FILLER_42_15
*1238 FILLER_42_153
*1239 FILLER_42_165
*1240 FILLER_42_177
*1241 FILLER_42_189
*1242 FILLER_42_195
*1243 FILLER_42_197
*1244 FILLER_42_209
*1245 FILLER_42_221
*1246 FILLER_42_233
*1247 FILLER_42_245
*1248 FILLER_42_251
*1249 FILLER_42_253
*1250 FILLER_42_265
*1251 FILLER_42_27
*1252 FILLER_42_277
*1253 FILLER_42_289
*1254 FILLER_42_29
*1255 FILLER_42_297
*1256 FILLER_42_3
*1257 FILLER_42_36
*1258 FILLER_42_48
*1259 FILLER_42_60
*1260 FILLER_42_72
*1261 FILLER_42_85
*1262 FILLER_42_97
*1263 FILLER_43_105
*1264 FILLER_43_111
*1265 FILLER_43_113
*1266 FILLER_43_125
*1267 FILLER_43_137
*1268 FILLER_43_14
*1269 FILLER_43_149
*1270 FILLER_43_161
*1271 FILLER_43_167
*1272 FILLER_43_169
*1273 FILLER_43_181
*1274 FILLER_43_193
*1275 FILLER_43_205
*1276 FILLER_43_217
*1277 FILLER_43_223
*1278 FILLER_43_225
*1279 FILLER_43_237
*1280 FILLER_43_249
*1281 FILLER_43_261
*1282 FILLER_43_273
*1283 FILLER_43_279
*1284 FILLER_43_28
*1285 FILLER_43_281
*1286 FILLER_43_293
*1287 FILLER_43_3
*1288 FILLER_43_38
*1289 FILLER_43_50
*1290 FILLER_43_57
*1291 FILLER_43_69
*1292 FILLER_43_81
*1293 FILLER_43_9
*1294 FILLER_43_93
*1295 FILLER_44_109
*1296 FILLER_44_121
*1297 FILLER_44_133
*1298 FILLER_44_139
*1299 FILLER_44_141
*1300 FILLER_44_15
*1301 FILLER_44_153
*1302 FILLER_44_165
*1303 FILLER_44_177
*1304 FILLER_44_189
*1305 FILLER_44_195
*1306 FILLER_44_197
*1307 FILLER_44_209
*1308 FILLER_44_221
*1309 FILLER_44_23
*1310 FILLER_44_233
*1311 FILLER_44_245
*1312 FILLER_44_251
*1313 FILLER_44_253
*1314 FILLER_44_265
*1315 FILLER_44_27
*1316 FILLER_44_277
*1317 FILLER_44_289
*1318 FILLER_44_29
*1319 FILLER_44_297
*1320 FILLER_44_3
*1321 FILLER_44_38
*1322 FILLER_44_50
*1323 FILLER_44_62
*1324 FILLER_44_74
*1325 FILLER_44_82
*1326 FILLER_44_85
*1327 FILLER_44_97
*1328 FILLER_45_105
*1329 FILLER_45_11
*1330 FILLER_45_111
*1331 FILLER_45_113
*1332 FILLER_45_125
*1333 FILLER_45_137
*1334 FILLER_45_149
*1335 FILLER_45_16
*1336 FILLER_45_161
*1337 FILLER_45_167
*1338 FILLER_45_169
*1339 FILLER_45_181
*1340 FILLER_45_193
*1341 FILLER_45_205
*1342 FILLER_45_217
*1343 FILLER_45_223
*1344 FILLER_45_225
*1345 FILLER_45_23
*1346 FILLER_45_237
*1347 FILLER_45_249
*1348 FILLER_45_261
*1349 FILLER_45_273
*1350 FILLER_45_279
*1351 FILLER_45_281
*1352 FILLER_45_293
*1353 FILLER_45_3
*1354 FILLER_45_31
*1355 FILLER_45_54
*1356 FILLER_45_57
*1357 FILLER_45_69
*1358 FILLER_45_81
*1359 FILLER_45_93
*1360 FILLER_46_109
*1361 FILLER_46_121
*1362 FILLER_46_133
*1363 FILLER_46_139
*1364 FILLER_46_141
*1365 FILLER_46_15
*1366 FILLER_46_153
*1367 FILLER_46_165
*1368 FILLER_46_177
*1369 FILLER_46_189
*1370 FILLER_46_195
*1371 FILLER_46_197
*1372 FILLER_46_209
*1373 FILLER_46_221
*1374 FILLER_46_233
*1375 FILLER_46_245
*1376 FILLER_46_251
*1377 FILLER_46_253
*1378 FILLER_46_265
*1379 FILLER_46_27
*1380 FILLER_46_277
*1381 FILLER_46_289
*1382 FILLER_46_29
*1383 FILLER_46_297
*1384 FILLER_46_3
*1385 FILLER_46_41
*1386 FILLER_46_53
*1387 FILLER_46_65
*1388 FILLER_46_77
*1389 FILLER_46_83
*1390 FILLER_46_85
*1391 FILLER_46_97
*1392 FILLER_47_105
*1393 FILLER_47_111
*1394 FILLER_47_113
*1395 FILLER_47_125
*1396 FILLER_47_137
*1397 FILLER_47_149
*1398 FILLER_47_15
*1399 FILLER_47_161
*1400 FILLER_47_167
*1401 FILLER_47_169
*1402 FILLER_47_181
*1403 FILLER_47_193
*1404 FILLER_47_205
*1405 FILLER_47_217
*1406 FILLER_47_223
*1407 FILLER_47_225
*1408 FILLER_47_237
*1409 FILLER_47_249
*1410 FILLER_47_261
*1411 FILLER_47_27
*1412 FILLER_47_273
*1413 FILLER_47_279
*1414 FILLER_47_281
*1415 FILLER_47_293
*1416 FILLER_47_3
*1417 FILLER_47_39
*1418 FILLER_47_51
*1419 FILLER_47_55
*1420 FILLER_47_57
*1421 FILLER_47_69
*1422 FILLER_47_81
*1423 FILLER_47_93
*1424 FILLER_48_109
*1425 FILLER_48_12
*1426 FILLER_48_121
*1427 FILLER_48_133
*1428 FILLER_48_139
*1429 FILLER_48_141
*1430 FILLER_48_153
*1431 FILLER_48_165
*1432 FILLER_48_177
*1433 FILLER_48_189
*1434 FILLER_48_19
*1435 FILLER_48_195
*1436 FILLER_48_197
*1437 FILLER_48_209
*1438 FILLER_48_221
*1439 FILLER_48_233
*1440 FILLER_48_245
*1441 FILLER_48_251
*1442 FILLER_48_253
*1443 FILLER_48_265
*1444 FILLER_48_27
*1445 FILLER_48_277
*1446 FILLER_48_289
*1447 FILLER_48_29
*1448 FILLER_48_297
*1449 FILLER_48_3
*1450 FILLER_48_41
*1451 FILLER_48_53
*1452 FILLER_48_65
*1453 FILLER_48_7
*1454 FILLER_48_77
*1455 FILLER_48_83
*1456 FILLER_48_85
*1457 FILLER_48_97
*1458 FILLER_49_105
*1459 FILLER_49_111
*1460 FILLER_49_113
*1461 FILLER_49_125
*1462 FILLER_49_137
*1463 FILLER_49_149
*1464 FILLER_49_15
*1465 FILLER_49_161
*1466 FILLER_49_167
*1467 FILLER_49_169
*1468 FILLER_49_181
*1469 FILLER_49_193
*1470 FILLER_49_205
*1471 FILLER_49_217
*1472 FILLER_49_223
*1473 FILLER_49_225
*1474 FILLER_49_237
*1475 FILLER_49_249
*1476 FILLER_49_261
*1477 FILLER_49_27
*1478 FILLER_49_273
*1479 FILLER_49_279
*1480 FILLER_49_281
*1481 FILLER_49_293
*1482 FILLER_49_3
*1483 FILLER_49_39
*1484 FILLER_49_51
*1485 FILLER_49_55
*1486 FILLER_49_57
*1487 FILLER_49_69
*1488 FILLER_49_81
*1489 FILLER_49_93
*1490 FILLER_4_109
*1491 FILLER_4_121
*1492 FILLER_4_133
*1493 FILLER_4_139
*1494 FILLER_4_141
*1495 FILLER_4_15
*1496 FILLER_4_153
*1497 FILLER_4_165
*1498 FILLER_4_177
*1499 FILLER_4_189
*1500 FILLER_4_195
*1501 FILLER_4_197
*1502 FILLER_4_209
*1503 FILLER_4_221
*1504 FILLER_4_233
*1505 FILLER_4_245
*1506 FILLER_4_251
*1507 FILLER_4_253
*1508 FILLER_4_265
*1509 FILLER_4_27
*1510 FILLER_4_277
*1511 FILLER_4_289
*1512 FILLER_4_29
*1513 FILLER_4_297
*1514 FILLER_4_3
*1515 FILLER_4_41
*1516 FILLER_4_53
*1517 FILLER_4_65
*1518 FILLER_4_77
*1519 FILLER_4_83
*1520 FILLER_4_85
*1521 FILLER_4_97
*1522 FILLER_50_109
*1523 FILLER_50_12
*1524 FILLER_50_121
*1525 FILLER_50_133
*1526 FILLER_50_139
*1527 FILLER_50_141
*1528 FILLER_50_153
*1529 FILLER_50_165
*1530 FILLER_50_177
*1531 FILLER_50_189
*1532 FILLER_50_195
*1533 FILLER_50_197
*1534 FILLER_50_20
*1535 FILLER_50_209
*1536 FILLER_50_221
*1537 FILLER_50_233
*1538 FILLER_50_245
*1539 FILLER_50_251
*1540 FILLER_50_253
*1541 FILLER_50_265
*1542 FILLER_50_277
*1543 FILLER_50_289
*1544 FILLER_50_29
*1545 FILLER_50_297
*1546 FILLER_50_3
*1547 FILLER_50_41
*1548 FILLER_50_53
*1549 FILLER_50_65
*1550 FILLER_50_7
*1551 FILLER_50_77
*1552 FILLER_50_83
*1553 FILLER_50_85
*1554 FILLER_50_97
*1555 FILLER_51_105
*1556 FILLER_51_111
*1557 FILLER_51_113
*1558 FILLER_51_125
*1559 FILLER_51_137
*1560 FILLER_51_149
*1561 FILLER_51_161
*1562 FILLER_51_167
*1563 FILLER_51_169
*1564 FILLER_51_181
*1565 FILLER_51_193
*1566 FILLER_51_205
*1567 FILLER_51_21
*1568 FILLER_51_217
*1569 FILLER_51_223
*1570 FILLER_51_225
*1571 FILLER_51_237
*1572 FILLER_51_249
*1573 FILLER_51_261
*1574 FILLER_51_273
*1575 FILLER_51_279
*1576 FILLER_51_281
*1577 FILLER_51_293
*1578 FILLER_51_3
*1579 FILLER_51_33
*1580 FILLER_51_45
*1581 FILLER_51_53
*1582 FILLER_51_57
*1583 FILLER_51_69
*1584 FILLER_51_81
*1585 FILLER_51_9
*1586 FILLER_51_93
*1587 FILLER_52_109
*1588 FILLER_52_121
*1589 FILLER_52_133
*1590 FILLER_52_139
*1591 FILLER_52_141
*1592 FILLER_52_15
*1593 FILLER_52_153
*1594 FILLER_52_165
*1595 FILLER_52_177
*1596 FILLER_52_189
*1597 FILLER_52_195
*1598 FILLER_52_197
*1599 FILLER_52_209
*1600 FILLER_52_221