*SPEF "ieee 1481-1999"
*DESIGN "user_module_349011320806310484"
*DATE "11:11:11 Fri 11 11, 1111"
*VENDOR "OpenRCX"
*PROGRAM "Parallel Extraction"
*VERSION "1.0"
*DESIGN_FLOW "NAME_SCOPE LOCAL" "PIN_CAP NONE"
*DIVIDER /
*DELIMITER :
*BUS_DELIMITER []
*T_UNIT 1 NS
*C_UNIT 1 PF
*R_UNIT 1 OHM
*L_UNIT 1 HENRY

*NAME_MAP
*1 io_in[0]
*2 io_in[1]
*3 io_in[2]
*4 io_in[3]
*5 io_in[4]
*6 io_in[5]
*7 io_in[6]
*8 io_in[7]
*9 io_out[0]
*10 io_out[1]
*11 net8
*12 io_out[3]
*13 net9
*14 io_out[5]
*15 io_out[6]
*16 io_out[7]
*19 _000_
*20 _001_
*21 _002_
*22 _003_
*23 _004_
*24 _005_
*25 _006_
*26 _007_
*27 _008_
*28 _009_
*29 _010_
*30 _011_
*31 _012_
*32 _013_
*33 _014_
*34 _015_
*35 _016_
*36 _017_
*37 _018_
*38 _019_
*39 _020_
*40 _021_
*41 _022_
*42 _023_
*43 _024_
*44 _025_
*45 _026_
*46 _027_
*47 _028_
*48 _029_
*49 _030_
*50 _031_
*51 _032_
*52 _033_
*53 _034_
*54 _035_
*55 _036_
*56 _037_
*57 clknet_0_flipflop1\.clk
*58 clknet_0_flop2\.clk
*59 clknet_0_io_in[0]
*60 clknet_1_0__leaf_flipflop1\.clk
*61 clknet_1_0__leaf_flop2\.clk
*62 clknet_1_0__leaf_io_in[0]
*63 clknet_1_1__leaf_flipflop1\.clk
*64 clknet_1_1__leaf_flop2\.clk
*65 clknet_1_1__leaf_io_in[0]
*66 flipflop1\.clk
*67 flipflop1\.d
*68 flipflop1\.q
*69 flipflop3\.d
*70 flipflop3\.q
*71 flipflop4\.d
*72 flipflop4\.q
*73 flipflop5\.d
*74 flipflop5\.q
*75 flipflop6\.d
*76 flipflop6\.q
*77 flop2\.clk
*78 flop2\.q
*79 flop3\.q
*80 flop4\.q
*81 flop5\.q
*82 flop6\.q
*83 mux24\.out
*84 net1
*85 net10
*86 net11
*87 net2
*88 net3
*89 net4
*90 net5
*91 net6
*92 net7
*93 FILLER_0_109
*94 FILLER_0_113
*95 FILLER_0_125
*96 FILLER_0_137
*97 FILLER_0_141
*98 FILLER_0_153
*99 FILLER_0_165
*100 FILLER_0_169
*101 FILLER_0_181
*102 FILLER_0_193
*103 FILLER_0_197
*104 FILLER_0_209
*105 FILLER_0_221
*106 FILLER_0_225
*107 FILLER_0_237
*108 FILLER_0_249
*109 FILLER_0_25
*110 FILLER_0_253
*111 FILLER_0_265
*112 FILLER_0_277
*113 FILLER_0_281
*114 FILLER_0_29
*115 FILLER_0_293
*116 FILLER_0_3
*117 FILLER_0_47
*118 FILLER_0_55
*119 FILLER_0_57
*120 FILLER_0_69
*121 FILLER_0_81
*122 FILLER_0_85
*123 FILLER_0_97
*124 FILLER_10_109
*125 FILLER_10_121
*126 FILLER_10_13
*127 FILLER_10_133
*128 FILLER_10_139
*129 FILLER_10_141
*130 FILLER_10_153
*131 FILLER_10_165
*132 FILLER_10_177
*133 FILLER_10_189
*134 FILLER_10_195
*135 FILLER_10_197
*136 FILLER_10_209
*137 FILLER_10_22
*138 FILLER_10_221
*139 FILLER_10_233
*140 FILLER_10_245
*141 FILLER_10_251
*142 FILLER_10_253
*143 FILLER_10_265
*144 FILLER_10_277
*145 FILLER_10_289
*146 FILLER_10_29
*147 FILLER_10_297
*148 FILLER_10_3
*149 FILLER_10_41
*150 FILLER_10_53
*151 FILLER_10_65
*152 FILLER_10_77
*153 FILLER_10_83
*154 FILLER_10_85
*155 FILLER_10_97
*156 FILLER_11_105
*157 FILLER_11_111
*158 FILLER_11_113
*159 FILLER_11_125
*160 FILLER_11_137
*161 FILLER_11_149
*162 FILLER_11_16
*163 FILLER_11_161
*164 FILLER_11_167
*165 FILLER_11_169
*166 FILLER_11_181
*167 FILLER_11_193
*168 FILLER_11_205
*169 FILLER_11_217
*170 FILLER_11_223
*171 FILLER_11_225
*172 FILLER_11_237
*173 FILLER_11_249
*174 FILLER_11_261
*175 FILLER_11_273
*176 FILLER_11_279
*177 FILLER_11_28
*178 FILLER_11_281
*179 FILLER_11_293
*180 FILLER_11_3
*181 FILLER_11_40
*182 FILLER_11_52
*183 FILLER_11_57
*184 FILLER_11_69
*185 FILLER_11_81
*186 FILLER_11_9
*187 FILLER_11_93
*188 FILLER_12_109
*189 FILLER_12_121
*190 FILLER_12_133
*191 FILLER_12_139
*192 FILLER_12_141
*193 FILLER_12_153
*194 FILLER_12_165
*195 FILLER_12_177
*196 FILLER_12_189
*197 FILLER_12_195
*198 FILLER_12_197
*199 FILLER_12_20
*200 FILLER_12_209
*201 FILLER_12_221
*202 FILLER_12_233
*203 FILLER_12_245
*204 FILLER_12_251
*205 FILLER_12_253
*206 FILLER_12_265
*207 FILLER_12_277
*208 FILLER_12_289
*209 FILLER_12_29
*210 FILLER_12_297
*211 FILLER_12_3
*212 FILLER_12_41
*213 FILLER_12_53
*214 FILLER_12_65
*215 FILLER_12_77
*216 FILLER_12_8
*217 FILLER_12_83
*218 FILLER_12_85
*219 FILLER_12_97
*220 FILLER_13_105
*221 FILLER_13_111
*222 FILLER_13_113
*223 FILLER_13_12
*224 FILLER_13_125
*225 FILLER_13_137
*226 FILLER_13_149
*227 FILLER_13_161
*228 FILLER_13_167
*229 FILLER_13_169
*230 FILLER_13_181
*231 FILLER_13_193
*232 FILLER_13_20
*233 FILLER_13_205
*234 FILLER_13_217
*235 FILLER_13_223
*236 FILLER_13_225
*237 FILLER_13_237
*238 FILLER_13_249
*239 FILLER_13_25
*240 FILLER_13_261
*241 FILLER_13_273
*242 FILLER_13_279
*243 FILLER_13_281
*244 FILLER_13_293
*245 FILLER_13_3
*246 FILLER_13_37
*247 FILLER_13_49
*248 FILLER_13_55
*249 FILLER_13_57
*250 FILLER_13_69
*251 FILLER_13_81
*252 FILLER_13_93
*253 FILLER_14_109
*254 FILLER_14_11
*255 FILLER_14_121
*256 FILLER_14_133
*257 FILLER_14_139
*258 FILLER_14_141
*259 FILLER_14_153
*260 FILLER_14_165
*261 FILLER_14_177
*262 FILLER_14_189
*263 FILLER_14_195
*264 FILLER_14_197
*265 FILLER_14_209
*266 FILLER_14_221
*267 FILLER_14_23
*268 FILLER_14_233
*269 FILLER_14_245
*270 FILLER_14_251
*271 FILLER_14_253
*272 FILLER_14_265
*273 FILLER_14_27
*274 FILLER_14_277
*275 FILLER_14_289
*276 FILLER_14_29
*277 FILLER_14_297
*278 FILLER_14_3
*279 FILLER_14_41
*280 FILLER_14_53
*281 FILLER_14_65
*282 FILLER_14_77
*283 FILLER_14_83
*284 FILLER_14_85
*285 FILLER_14_97
*286 FILLER_15_105
*287 FILLER_15_111
*288 FILLER_15_113
*289 FILLER_15_125
*290 FILLER_15_137
*291 FILLER_15_149
*292 FILLER_15_15
*293 FILLER_15_161
*294 FILLER_15_167
*295 FILLER_15_169
*296 FILLER_15_181
*297 FILLER_15_193
*298 FILLER_15_205
*299 FILLER_15_217
*300 FILLER_15_223
*301 FILLER_15_225
*302 FILLER_15_237
*303 FILLER_15_249
*304 FILLER_15_261
*305 FILLER_15_273
*306 FILLER_15_279
*307 FILLER_15_281
*308 FILLER_15_293
*309 FILLER_15_3
*310 FILLER_15_31
*311 FILLER_15_43
*312 FILLER_15_54
*313 FILLER_15_57
*314 FILLER_15_69
*315 FILLER_15_81
*316 FILLER_15_93
*317 FILLER_16_109
*318 FILLER_16_121
*319 FILLER_16_133
*320 FILLER_16_139
*321 FILLER_16_141
*322 FILLER_16_153
*323 FILLER_16_165
*324 FILLER_16_177
*325 FILLER_16_189
*326 FILLER_16_195
*327 FILLER_16_197
*328 FILLER_16_20
*329 FILLER_16_209
*330 FILLER_16_221
*331 FILLER_16_233
*332 FILLER_16_245
*333 FILLER_16_251
*334 FILLER_16_253
*335 FILLER_16_265
*336 FILLER_16_277
*337 FILLER_16_289
*338 FILLER_16_29
*339 FILLER_16_297
*340 FILLER_16_3
*341 FILLER_16_41
*342 FILLER_16_53
*343 FILLER_16_65
*344 FILLER_16_77
*345 FILLER_16_8
*346 FILLER_16_83
*347 FILLER_16_85
*348 FILLER_16_97
*349 FILLER_17_100
*350 FILLER_17_113
*351 FILLER_17_12
*352 FILLER_17_125
*353 FILLER_17_137
*354 FILLER_17_149
*355 FILLER_17_161
*356 FILLER_17_167
*357 FILLER_17_169
*358 FILLER_17_181
*359 FILLER_17_193
*360 FILLER_17_205
*361 FILLER_17_217
*362 FILLER_17_223
*363 FILLER_17_225
*364 FILLER_17_237
*365 FILLER_17_24
*366 FILLER_17_249
*367 FILLER_17_261
*368 FILLER_17_273
*369 FILLER_17_279
*370 FILLER_17_281
*371 FILLER_17_293
*372 FILLER_17_3
*373 FILLER_17_36
*374 FILLER_17_48
*375 FILLER_17_57
*376 FILLER_17_64
*377 FILLER_17_76
*378 FILLER_17_88
*379 FILLER_18_109
*380 FILLER_18_121
*381 FILLER_18_133
*382 FILLER_18_139
*383 FILLER_18_14
*384 FILLER_18_141
*385 FILLER_18_153
*386 FILLER_18_165
*387 FILLER_18_177
*388 FILLER_18_189
*389 FILLER_18_195
*390 FILLER_18_197
*391 FILLER_18_209
*392 FILLER_18_221
*393 FILLER_18_23
*394 FILLER_18_233
*395 FILLER_18_245
*396 FILLER_18_251
*397 FILLER_18_253
*398 FILLER_18_265
*399 FILLER_18_27
*400 FILLER_18_277
*401 FILLER_18_289
*402 FILLER_18_29
*403 FILLER_18_297
*404 FILLER_18_3
*405 FILLER_18_41
*406 FILLER_18_45
*407 FILLER_18_49
*408 FILLER_18_61
*409 FILLER_18_73
*410 FILLER_18_81
*411 FILLER_18_85
*412 FILLER_18_97
*413 FILLER_19_110
*414 FILLER_19_113
*415 FILLER_19_12
*416 FILLER_19_125
*417 FILLER_19_137
*418 FILLER_19_149
*419 FILLER_19_161
*420 FILLER_19_167
*421 FILLER_19_169
*422 FILLER_19_181
*423 FILLER_19_193
*424 FILLER_19_205
*425 FILLER_19_217
*426 FILLER_19_223
*427 FILLER_19_225
*428 FILLER_19_237
*429 FILLER_19_249
*430 FILLER_19_26
*431 FILLER_19_261
*432 FILLER_19_273
*433 FILLER_19_279
*434 FILLER_19_281
*435 FILLER_19_293
*436 FILLER_19_3
*437 FILLER_19_38
*438 FILLER_19_50
*439 FILLER_19_57
*440 FILLER_19_62
*441 FILLER_19_74
*442 FILLER_19_86
*443 FILLER_19_98
*444 FILLER_1_105
*445 FILLER_1_111
*446 FILLER_1_113
*447 FILLER_1_125
*448 FILLER_1_137
*449 FILLER_1_149
*450 FILLER_1_15
*451 FILLER_1_161
*452 FILLER_1_167
*453 FILLER_1_169
*454 FILLER_1_181
*455 FILLER_1_193
*456 FILLER_1_205
*457 FILLER_1_217
*458 FILLER_1_223
*459 FILLER_1_225
*460 FILLER_1_237
*461 FILLER_1_249
*462 FILLER_1_261
*463 FILLER_1_273
*464 FILLER_1_279
*465 FILLER_1_281
*466 FILLER_1_293
*467 FILLER_1_3
*468 FILLER_1_38
*469 FILLER_1_49
*470 FILLER_1_55
*471 FILLER_1_57
*472 FILLER_1_69
*473 FILLER_1_81
*474 FILLER_1_93
*475 FILLER_20_109
*476 FILLER_20_121
*477 FILLER_20_133
*478 FILLER_20_139
*479 FILLER_20_14
*480 FILLER_20_141
*481 FILLER_20_153
*482 FILLER_20_165
*483 FILLER_20_177
*484 FILLER_20_189
*485 FILLER_20_195
*486 FILLER_20_197
*487 FILLER_20_209
*488 FILLER_20_221
*489 FILLER_20_23
*490 FILLER_20_233
*491 FILLER_20_245
*492 FILLER_20_251
*493 FILLER_20_253
*494 FILLER_20_265
*495 FILLER_20_27
*496 FILLER_20_277
*497 FILLER_20_289
*498 FILLER_20_29
*499 FILLER_20_297
*500 FILLER_20_3
*501 FILLER_20_41
*502 FILLER_20_53
*503 FILLER_20_64
*504 FILLER_20_76
*505 FILLER_20_8
*506 FILLER_20_85
*507 FILLER_20_97
*508 FILLER_21_11
*509 FILLER_21_110
*510 FILLER_21_113
*511 FILLER_21_125
*512 FILLER_21_137
*513 FILLER_21_149
*514 FILLER_21_15
*515 FILLER_21_161
*516 FILLER_21_167
*517 FILLER_21_169
*518 FILLER_21_181
*519 FILLER_21_193
*520 FILLER_21_205
*521 FILLER_21_217
*522 FILLER_21_223
*523 FILLER_21_225
*524 FILLER_21_237
*525 FILLER_21_249
*526 FILLER_21_261
*527 FILLER_21_273
*528 FILLER_21_279
*529 FILLER_21_281
*530 FILLER_21_293
*531 FILLER_21_3
*532 FILLER_21_36
*533 FILLER_21_50
*534 FILLER_21_57
*535 FILLER_21_62
*536 FILLER_21_74
*537 FILLER_21_86
*538 FILLER_21_98
*539 FILLER_22_109
*540 FILLER_22_121
*541 FILLER_22_133
*542 FILLER_22_139
*543 FILLER_22_141
*544 FILLER_22_15
*545 FILLER_22_153
*546 FILLER_22_165
*547 FILLER_22_177
*548 FILLER_22_189
*549 FILLER_22_195
*550 FILLER_22_197
*551 FILLER_22_209
*552 FILLER_22_221
*553 FILLER_22_233
*554 FILLER_22_245
*555 FILLER_22_25
*556 FILLER_22_251
*557 FILLER_22_253
*558 FILLER_22_265
*559 FILLER_22_277
*560 FILLER_22_289
*561 FILLER_22_29
*562 FILLER_22_297
*563 FILLER_22_3
*564 FILLER_22_41
*565 FILLER_22_53
*566 FILLER_22_65
*567 FILLER_22_77
*568 FILLER_22_83
*569 FILLER_22_85
*570 FILLER_22_97
*571 FILLER_23_102
*572 FILLER_23_110
*573 FILLER_23_113
*574 FILLER_23_125
*575 FILLER_23_137
*576 FILLER_23_149
*577 FILLER_23_161
*578 FILLER_23_167
*579 FILLER_23_169
*580 FILLER_23_181
*581 FILLER_23_193
*582 FILLER_23_20
*583 FILLER_23_205
*584 FILLER_23_217
*585 FILLER_23_223
*586 FILLER_23_225
*587 FILLER_23_237
*588 FILLER_23_249
*589 FILLER_23_261
*590 FILLER_23_273
*591 FILLER_23_279
*592 FILLER_23_281
*593 FILLER_23_293
*594 FILLER_23_3
*595 FILLER_23_32
*596 FILLER_23_44
*597 FILLER_23_57
*598 FILLER_23_69
*599 FILLER_23_78
*600 FILLER_23_8
*601 FILLER_23_90
*602 FILLER_24_109
*603 FILLER_24_121
*604 FILLER_24_133
*605 FILLER_24_139
*606 FILLER_24_14
*607 FILLER_24_141
*608 FILLER_24_153
*609 FILLER_24_165
*610 FILLER_24_177
*611 FILLER_24_189
*612 FILLER_24_195
*613 FILLER_24_197
*614 FILLER_24_209
*615 FILLER_24_221
*616 FILLER_24_233
*617 FILLER_24_245
*618 FILLER_24_251
*619 FILLER_24_253
*620 FILLER_24_26
*621 FILLER_24_265
*622 FILLER_24_277
*623 FILLER_24_289
*624 FILLER_24_29
*625 FILLER_24_297
*626 FILLER_24_3
*627 FILLER_24_35
*628 FILLER_24_41
*629 FILLER_24_47
*630 FILLER_24_54
*631 FILLER_24_66
*632 FILLER_24_78
*633 FILLER_24_85
*634 FILLER_24_97
*635 FILLER_25_105
*636 FILLER_25_111
*637 FILLER_25_113
*638 FILLER_25_125
*639 FILLER_25_137
*640 FILLER_25_149
*641 FILLER_25_161
*642 FILLER_25_167
*643 FILLER_25_169
*644 FILLER_25_181
*645 FILLER_25_193
*646 FILLER_25_205
*647 FILLER_25_21
*648 FILLER_25_217
*649 FILLER_25_223
*650 FILLER_25_225
*651 FILLER_25_237
*652 FILLER_25_249
*653 FILLER_25_261
*654 FILLER_25_273
*655 FILLER_25_279
*656 FILLER_25_281
*657 FILLER_25_293
*658 FILLER_25_3
*659 FILLER_25_30
*660 FILLER_25_40
*661 FILLER_25_52
*662 FILLER_25_57
*663 FILLER_25_69
*664 FILLER_25_81
*665 FILLER_25_9
*666 FILLER_25_93
*667 FILLER_26_107
*668 FILLER_26_119
*669 FILLER_26_131
*670 FILLER_26_139
*671 FILLER_26_141
*672 FILLER_26_153
*673 FILLER_26_165
*674 FILLER_26_177
*675 FILLER_26_189
*676 FILLER_26_195
*677 FILLER_26_197
*678 FILLER_26_20
*679 FILLER_26_209
*680 FILLER_26_221
*681 FILLER_26_233
*682 FILLER_26_245
*683 FILLER_26_251
*684 FILLER_26_253
*685 FILLER_26_265
*686 FILLER_26_277
*687 FILLER_26_289
*688 FILLER_26_29
*689 FILLER_26_297
*690 FILLER_26_3
*691 FILLER_26_41
*692 FILLER_26_50
*693 FILLER_26_62
*694 FILLER_26_68
*695 FILLER_26_8
*696 FILLER_26_80
*697 FILLER_26_85
*698 FILLER_26_91
*699 FILLER_26_95
*700 FILLER_27_102
*701 FILLER_27_110
*702 FILLER_27_113
*703 FILLER_27_12
*704 FILLER_27_125
*705 FILLER_27_137
*706 FILLER_27_149
*707 FILLER_27_161
*708 FILLER_27_167
*709 FILLER_27_169
*710 FILLER_27_181
*711 FILLER_27_193
*712 FILLER_27_205
*713 FILLER_27_217
*714 FILLER_27_223
*715 FILLER_27_225
*716 FILLER_27_237
*717 FILLER_27_249
*718 FILLER_27_261
*719 FILLER_27_273
*720 FILLER_27_279
*721 FILLER_27_281
*722 FILLER_27_293
*723 FILLER_27_3
*724 FILLER_27_36
*725 FILLER_27_45
*726 FILLER_27_53
*727 FILLER_27_57
*728 FILLER_27_66
*729 FILLER_27_78
*730 FILLER_27_90
*731 FILLER_28_109
*732 FILLER_28_121
*733 FILLER_28_133
*734 FILLER_28_139
*735 FILLER_28_141
*736 FILLER_28_15
*737 FILLER_28_153
*738 FILLER_28_165
*739 FILLER_28_177
*740 FILLER_28_189
*741 FILLER_28_195
*742 FILLER_28_197
*743 FILLER_28_209
*744 FILLER_28_221
*745 FILLER_28_233
*746 FILLER_28_245
*747 FILLER_28_251
*748 FILLER_28_253
*749 FILLER_28_265
*750 FILLER_28_27
*751 FILLER_28_277
*752 FILLER_28_289
*753 FILLER_28_29
*754 FILLER_28_297
*755 FILLER_28_3
*756 FILLER_28_40
*757 FILLER_28_52
*758 FILLER_28_64
*759 FILLER_28_76
*760 FILLER_28_85
*761 FILLER_28_97
*762 FILLER_29_102
*763 FILLER_29_110
*764 FILLER_29_113
*765 FILLER_29_125
*766 FILLER_29_137
*767 FILLER_29_149
*768 FILLER_29_15
*769 FILLER_29_161
*770 FILLER_29_167
*771 FILLER_29_169
*772 FILLER_29_181
*773 FILLER_29_193
*774 FILLER_29_205
*775 FILLER_29_217
*776 FILLER_29_223
*777 FILLER_29_225
*778 FILLER_29_237
*779 FILLER_29_249
*780 FILLER_29_261
*781 FILLER_29_273
*782 FILLER_29_279
*783 FILLER_29_281
*784 FILLER_29_293
*785 FILLER_29_3
*786 FILLER_29_41
*787 FILLER_29_53
*788 FILLER_29_57
*789 FILLER_29_66
*790 FILLER_29_78
*791 FILLER_29_90
*792 FILLER_2_109
*793 FILLER_2_121
*794 FILLER_2_133
*795 FILLER_2_139
*796 FILLER_2_141
*797 FILLER_2_153
*798 FILLER_2_165
*799 FILLER_2_177
*800 FILLER_2_189
*801 FILLER_2_195
*802 FILLER_2_197
*803 FILLER_2_209
*804 FILLER_2_221
*805 FILLER_2_233
*806 FILLER_2_245
*807 FILLER_2_251
*808 FILLER_2_253
*809 FILLER_2_26
*810 FILLER_2_265
*811 FILLER_2_277
*812 FILLER_2_289
*813 FILLER_2_29
*814 FILLER_2_297
*815 FILLER_2_3
*816 FILLER_2_47
*817 FILLER_2_59
*818 FILLER_2_71
*819 FILLER_2_83
*820 FILLER_2_85
*821 FILLER_2_9
*822 FILLER_2_97
*823 FILLER_30_109
*824 FILLER_30_121
*825 FILLER_30_133
*826 FILLER_30_139
*827 FILLER_30_141
*828 FILLER_30_15
*829 FILLER_30_153
*830 FILLER_30_165
*831 FILLER_30_177
*832 FILLER_30_189
*833 FILLER_30_195
*834 FILLER_30_197
*835 FILLER_30_209
*836 FILLER_30_221
*837 FILLER_30_233
*838 FILLER_30_245
*839 FILLER_30_251
*840 FILLER_30_253
*841 FILLER_30_265
*842 FILLER_30_27
*843 FILLER_30_277
*844 FILLER_30_289
*845 FILLER_30_29
*846 FILLER_30_297
*847 FILLER_30_3
*848 FILLER_30_41
*849 FILLER_30_53
*850 FILLER_30_65
*851 FILLER_30_77
*852 FILLER_30_83
*853 FILLER_30_85
*854 FILLER_30_97
*855 FILLER_31_105
*856 FILLER_31_111
*857 FILLER_31_113
*858 FILLER_31_125
*859 FILLER_31_137
*860 FILLER_31_149
*861 FILLER_31_161
*862 FILLER_31_167
*863 FILLER_31_169
*864 FILLER_31_181
*865 FILLER_31_193
*866 FILLER_31_205
*867 FILLER_31_217
*868 FILLER_31_223
*869 FILLER_31_225
*870 FILLER_31_237
*871 FILLER_31_249
*872 FILLER_31_261
*873 FILLER_31_273
*874 FILLER_31_279
*875 FILLER_31_281
*876 FILLER_31_293
*877 FILLER_31_3
*878 FILLER_31_36
*879 FILLER_31_48
*880 FILLER_31_57
*881 FILLER_31_69
*882 FILLER_31_8
*883 FILLER_31_81
*884 FILLER_31_93
*885 FILLER_32_109
*886 FILLER_32_121
*887 FILLER_32_133
*888 FILLER_32_139
*889 FILLER_32_141
*890 FILLER_32_153
*891 FILLER_32_165
*892 FILLER_32_177
*893 FILLER_32_189
*894 FILLER_32_195
*895 FILLER_32_197
*896 FILLER_32_209
*897 FILLER_32_221
*898 FILLER_32_233
*899 FILLER_32_245
*900 FILLER_32_251
*901 FILLER_32_253
*902 FILLER_32_26
*903 FILLER_32_265
*904 FILLER_32_277
*905 FILLER_32_289
*906 FILLER_32_29
*907 FILLER_32_297
*908 FILLER_32_3
*909 FILLER_32_47
*910 FILLER_32_59
*911 FILLER_32_71
*912 FILLER_32_83
*913 FILLER_32_85
*914 FILLER_32_97
*915 FILLER_33_105
*916 FILLER_33_111
*917 FILLER_33_113
*918 FILLER_33_125
*919 FILLER_33_137
*920 FILLER_33_149
*921 FILLER_33_15
*922 FILLER_33_161
*923 FILLER_33_167
*924 FILLER_33_169
*925 FILLER_33_181
*926 FILLER_33_193
*927 FILLER_33_205
*928 FILLER_33_217
*929 FILLER_33_223
*930 FILLER_33_225
*931 FILLER_33_237
*932 FILLER_33_249
*933 FILLER_33_261
*934 FILLER_33_273
*935 FILLER_33_279
*936 FILLER_33_281
*937 FILLER_33_293
*938 FILLER_33_3
*939 FILLER_33_39
*940 FILLER_33_51
*941 FILLER_33_55
*942 FILLER_33_57
*943 FILLER_33_69
*944 FILLER_33_81
*945 FILLER_33_93
*946 FILLER_34_109
*947 FILLER_34_121
*948 FILLER_34_133
*949 FILLER_34_139
*950 FILLER_34_141
*951 FILLER_34_153
*952 FILLER_34_165
*953 FILLER_34_177
*954 FILLER_34_189
*955 FILLER_34_195
*956 FILLER_34_197
*957 FILLER_34_209
*958 FILLER_34_221
*959 FILLER_34_233
*960 FILLER_34_245
*961 FILLER_34_251
*962 FILLER_34_253
*963 FILLER_34_26
*964 FILLER_34_265
*965 FILLER_34_277
*966 FILLER_34_289
*967 FILLER_34_29
*968 FILLER_34_297
*969 FILLER_34_3
*970 FILLER_34_38
*971 FILLER_34_50
*972 FILLER_34_62
*973 FILLER_34_74
*974 FILLER_34_82
*975 FILLER_34_85
*976 FILLER_34_97
*977 FILLER_35_105
*978 FILLER_35_111
*979 FILLER_35_113
*980 FILLER_35_125
*981 FILLER_35_137
*982 FILLER_35_149
*983 FILLER_35_161
*984 FILLER_35_167
*985 FILLER_35_169
*986 FILLER_35_181
*987 FILLER_35_193
*988 FILLER_35_205
*989 FILLER_35_217
*990 FILLER_35_223
*991 FILLER_35_225
*992 FILLER_35_237
*993 FILLER_35_249
*994 FILLER_35_261
*995 FILLER_35_273
*996 FILLER_35_279
*997 FILLER_35_28
*998 FILLER_35_281
*999 FILLER_35_293
*1000 FILLER_35_3
*1001 FILLER_35_35
*1002 FILLER_35_47
*1003 FILLER_35_55
*1004 FILLER_35_57
*1005 FILLER_35_69
*1006 FILLER_35_81
*1007 FILLER_35_93
*1008 FILLER_36_109
*1009 FILLER_36_121
*1010 FILLER_36_133
*1011 FILLER_36_139
*1012 FILLER_36_141
*1013 FILLER_36_153
*1014 FILLER_36_165
*1015 FILLER_36_177
*1016 FILLER_36_189
*1017 FILLER_36_195
*1018 FILLER_36_197
*1019 FILLER_36_209
*1020 FILLER_36_221
*1021 FILLER_36_233
*1022 FILLER_36_245
*1023 FILLER_36_25
*1024 FILLER_36_251
*1025 FILLER_36_253
*1026 FILLER_36_265
*1027 FILLER_36_277
*1028 FILLER_36_289
*1029 FILLER_36_29
*1030 FILLER_36_297
*1031 FILLER_36_3
*1032 FILLER_36_41
*1033 FILLER_36_53
*1034 FILLER_36_65
*1035 FILLER_36_77
*1036 FILLER_36_83
*1037 FILLER_36_85
*1038 FILLER_36_97
*1039 FILLER_37_105
*1040 FILLER_37_111
*1041 FILLER_37_113
*1042 FILLER_37_125
*1043 FILLER_37_137
*1044 FILLER_37_149
*1045 FILLER_37_161
*1046 FILLER_37_167
*1047 FILLER_37_169
*1048 FILLER_37_181
*1049 FILLER_37_193
*1050 FILLER_37_205
*1051 FILLER_37_217
*1052 FILLER_37_223
*1053 FILLER_37_225
*1054 FILLER_37_237
*1055 FILLER_37_249
*1056 FILLER_37_26
*1057 FILLER_37_261
*1058 FILLER_37_273
*1059 FILLER_37_279
*1060 FILLER_37_281
*1061 FILLER_37_293
*1062 FILLER_37_3
*1063 FILLER_37_38
*1064 FILLER_37_50
*1065 FILLER_37_57
*1066 FILLER_37_69
*1067 FILLER_37_81
*1068 FILLER_37_9
*1069 FILLER_37_93
*1070 FILLER_38_109
*1071 FILLER_38_121
*1072 FILLER_38_133
*1073 FILLER_38_139
*1074 FILLER_38_141
*1075 FILLER_38_15
*1076 FILLER_38_153
*1077 FILLER_38_165
*1078 FILLER_38_177
*1079 FILLER_38_189
*1080 FILLER_38_195
*1081 FILLER_38_197
*1082 FILLER_38_209
*1083 FILLER_38_221
*1084 FILLER_38_233
*1085 FILLER_38_245
*1086 FILLER_38_251
*1087 FILLER_38_253
*1088 FILLER_38_265
*1089 FILLER_38_27
*1090 FILLER_38_277
*1091 FILLER_38_289
*1092 FILLER_38_29
*1093 FILLER_38_297
*1094 FILLER_38_3
*1095 FILLER_38_41
*1096 FILLER_38_53
*1097 FILLER_38_65
*1098 FILLER_38_77
*1099 FILLER_38_83
*1100 FILLER_38_85
*1101 FILLER_38_97
*1102 FILLER_39_105
*1103 FILLER_39_111
*1104 FILLER_39_113
*1105 FILLER_39_125
*1106 FILLER_39_137
*1107 FILLER_39_149
*1108 FILLER_39_161
*1109 FILLER_39_167
*1110 FILLER_39_169
*1111 FILLER_39_181
*1112 FILLER_39_193
*1113 FILLER_39_20
*1114 FILLER_39_205
*1115 FILLER_39_217
*1116 FILLER_39_223
*1117 FILLER_39_225
*1118 FILLER_39_237
*1119 FILLER_39_249
*1120 FILLER_39_261
*1121 FILLER_39_273
*1122 FILLER_39_279
*1123 FILLER_39_281
*1124 FILLER_39_293
*1125 FILLER_39_3
*1126 FILLER_39_32
*1127 FILLER_39_44
*1128 FILLER_39_57
*1129 FILLER_39_69
*1130 FILLER_39_8
*1131 FILLER_39_81
*1132 FILLER_39_93
*1133 FILLER_3_105
*1134 FILLER_3_111
*1135 FILLER_3_113
*1136 FILLER_3_125
*1137 FILLER_3_137
*1138 FILLER_3_149
*1139 FILLER_3_15
*1140 FILLER_3_161
*1141 FILLER_3_167
*1142 FILLER_3_169
*1143 FILLER_3_181
*1144 FILLER_3_193
*1145 FILLER_3_205
*1146 FILLER_3_217
*1147 FILLER_3_223
*1148 FILLER_3_225
*1149 FILLER_3_237
*1150 FILLER_3_249
*1151 FILLER_3_261
*1152 FILLER_3_273
*1153 FILLER_3_279
*1154 FILLER_3_281
*1155 FILLER_3_293
*1156 FILLER_3_3
*1157 FILLER_3_36
*1158 FILLER_3_48
*1159 FILLER_3_57
*1160 FILLER_3_69
*1161 FILLER_3_81
*1162 FILLER_3_93
*1163 FILLER_40_109
*1164 FILLER_40_121
*1165 FILLER_40_133
*1166 FILLER_40_139
*1167 FILLER_40_141
*1168 FILLER_40_15
*1169 FILLER_40_153
*1170 FILLER_40_165
*1171 FILLER_40_177
*1172 FILLER_40_189
*1173 FILLER_40_195
*1174 FILLER_40_197
*1175 FILLER_40_209
*1176 FILLER_40_221
*1177 FILLER_40_233
*1178 FILLER_40_245
*1179 FILLER_40_251
*1180 FILLER_40_253
*1181 FILLER_40_265
*1182 FILLER_40_27
*1183 FILLER_40_277
*1184 FILLER_40_289
*1185 FILLER_40_29
*1186 FILLER_40_297
*1187 FILLER_40_3
*1188 FILLER_40_41
*1189 FILLER_40_53
*1190 FILLER_40_65
*1191 FILLER_40_77
*1192 FILLER_40_83
*1193 FILLER_40_85
*1194 FILLER_40_97
*1195 FILLER_41_105
*1196 FILLER_41_111
*1197 FILLER_41_113
*1198 FILLER_41_125
*1199 FILLER_41_137
*1200 FILLER_41_149
*1201 FILLER_41_161
*1202 FILLER_41_167
*1203 FILLER_41_169
*1204 FILLER_41_181
*1205 FILLER_41_193
*1206 FILLER_41_205
*1207 FILLER_41_21
*1208 FILLER_41_217
*1209 FILLER_41_223
*1210 FILLER_41_225
*1211 FILLER_41_237
*1212 FILLER_41_249
*1213 FILLER_41_261
*1214 FILLER_41_273
*1215 FILLER_41_279
*1216 FILLER_41_281
*1217 FILLER_41_293
*1218 FILLER_41_3
*1219 FILLER_41_33
*1220 FILLER_41_45
*1221 FILLER_41_53
*1222 FILLER_41_57
*1223 FILLER_41_69
*1224 FILLER_41_81
*1225 FILLER_41_9
*1226 FILLER_41_93
*1227 FILLER_42_109
*1228 FILLER_42_121
*1229 FILLER_42_133
*1230 FILLER_42_139
*1231 FILLER_42_141
*1232 FILLER_42_15
*1233 FILLER_42_153
*1234 FILLER_42_165
*1235 FILLER_42_177
*1236 FILLER_42_189
*1237 FILLER_42_195
*1238 FILLER_42_197
*1239 FILLER_42_209
*1240 FILLER_42_221
*1241 FILLER_42_233
*1242 FILLER_42_245
*1243 FILLER_42_251
*1244 FILLER_42_253
*1245 FILLER_42_265
*1246 FILLER_42_27
*1247 FILLER_42_277
*1248 FILLER_42_289
*1249 FILLER_42_29
*1250 FILLER_42_297
*1251 FILLER_42_3
*1252 FILLER_42_41
*1253 FILLER_42_53
*1254 FILLER_42_65
*1255 FILLER_42_77
*1256 FILLER_42_83
*1257 FILLER_42_85
*1258 FILLER_42_97
*1259 FILLER_43_105
*1260 FILLER_43_111
*1261 FILLER_43_113
*1262 FILLER_43_125
*1263 FILLER_43_137
*1264 FILLER_43_149
*1265 FILLER_43_15
*1266 FILLER_43_161
*1267 FILLER_43_167
*1268 FILLER_43_169
*1269 FILLER_43_181
*1270 FILLER_43_193
*1271 FILLER_43_205
*1272 FILLER_43_217
*1273 FILLER_43_223
*1274 FILLER_43_225
*1275 FILLER_43_237
*1276 FILLER_43_249
*1277 FILLER_43_261
*1278 FILLER_43_27
*1279 FILLER_43_273
*1280 FILLER_43_279
*1281 FILLER_43_281
*1282 FILLER_43_293
*1283 FILLER_43_3
*1284 FILLER_43_39
*1285 FILLER_43_51
*1286 FILLER_43_55
*1287 FILLER_43_57
*1288 FILLER_43_69
*1289 FILLER_43_81
*1290 FILLER_43_93
*1291 FILLER_44_109
*1292 FILLER_44_121
*1293 FILLER_44_133
*1294 FILLER_44_139
*1295 FILLER_44_141
*1296 FILLER_44_153
*1297 FILLER_44_165
*1298 FILLER_44_177
*1299 FILLER_44_189
*1300 FILLER_44_195
*1301 FILLER_44_197
*1302 FILLER_44_209
*1303 FILLER_44_21
*1304 FILLER_44_221
*1305 FILLER_44_233
*1306 FILLER_44_245
*1307 FILLER_44_251
*1308 FILLER_44_253
*1309 FILLER_44_265
*1310 FILLER_44_27
*1311 FILLER_44_277
*1312 FILLER_44_289
*1313 FILLER_44_29
*1314 FILLER_44_297
*1315 FILLER_44_3
*1316 FILLER_44_41
*1317 FILLER_44_53
*1318 FILLER_44_65
*1319 FILLER_44_77
*1320 FILLER_44_83
*1321 FILLER_44_85
*1322 FILLER_44_9
*1323 FILLER_44_97
*1324 FILLER_45_105
*1325 FILLER_45_111
*1326 FILLER_45_113
*1327 FILLER_45_125
*1328 FILLER_45_13
*1329 FILLER_45_137
*1330 FILLER_45_149
*1331 FILLER_45_161
*1332 FILLER_45_167
*1333 FILLER_45_169
*1334 FILLER_45_181
*1335 FILLER_45_193
*1336 FILLER_45_205
*1337 FILLER_45_217
*1338 FILLER_45_223
*1339 FILLER_45_225
*1340 FILLER_45_237
*1341 FILLER_45_249
*1342 FILLER_45_25
*1343 FILLER_45_261
*1344 FILLER_45_273
*1345 FILLER_45_279
*1346 FILLER_45_281
*1347 FILLER_45_293
*1348 FILLER_45_3
*1349 FILLER_45_37
*1350 FILLER_45_49
*1351 FILLER_45_55
*1352 FILLER_45_57
*1353 FILLER_45_69
*1354 FILLER_45_81
*1355 FILLER_45_93
*1356 FILLER_46_109
*1357 FILLER_46_121
*1358 FILLER_46_133
*1359 FILLER_46_139
*1360 FILLER_46_14
*1361 FILLER_46_141
*1362 FILLER_46_153
*1363 FILLER_46_165
*1364 FILLER_46_177
*1365 FILLER_46_189
*1366 FILLER_46_195
*1367 FILLER_46_197
*1368 FILLER_46_209
*1369 FILLER_46_221
*1370 FILLER_46_233
*1371 FILLER_46_245
*1372 FILLER_46_251
*1373 FILLER_46_253
*1374 FILLER_46_26
*1375 FILLER_46_265
*1376 FILLER_46_277
*1377 FILLER_46_289
*1378 FILLER_46_29
*1379 FILLER_46_297
*1380 FILLER_46_3
*1381 FILLER_46_41
*1382 FILLER_46_53
*1383 FILLER_46_65
*1384 FILLER_46_77
*1385 FILLER_46_83
*1386 FILLER_46_85
*1387 FILLER_46_9
*1388 FILLER_46_97
*1389 FILLER_47_105
*1390 FILLER_47_111
*1391 FILLER_47_113
*1392 FILLER_47_125
*1393 FILLER_47_137
*1394 FILLER_47_149
*1395 FILLER_47_161
*1396 FILLER_47_167
*1397 FILLER_47_169
*1398 FILLER_47_181
*1399 FILLER_47_193
*1400 FILLER_47_20
*1401 FILLER_47_205
*1402 FILLER_47_217
*1403 FILLER_47_223
*1404 FILLER_47_225
*1405 FILLER_47_237
*1406 FILLER_47_249
*1407 FILLER_47_261
*1408 FILLER_47_273
*1409 FILLER_47_279
*1410 FILLER_47_281
*1411 FILLER_47_293
*1412 FILLER_47_3
*1413 FILLER_47_32
*1414 FILLER_47_44
*1415 FILLER_47_57
*1416 FILLER_47_69
*1417 FILLER_47_8
*1418 FILLER_47_81
*1419 FILLER_47_93
*1420 FILLER_48_109
*1421 FILLER_48_11
*1422 FILLER_48_121
*1423 FILLER_48_133
*1424 FILLER_48_139
*1425 FILLER_48_141
*1426 FILLER_48_153
*1427 FILLER_48_165
*1428 FILLER_48_17
*1429 FILLER_48_177
*1430 FILLER_48_189
*1431 FILLER_48_195
*1432 FILLER_48_197
*1433 FILLER_48_209
*1434 FILLER_48_221
*1435 FILLER_48_233
*1436 FILLER_48_245
*1437 FILLER_48_25
*1438 FILLER_48_251
*1439 FILLER_48_253
*1440 FILLER_48_265
*1441 FILLER_48_277
*1442 FILLER_48_289
*1443 FILLER_48_29
*1444 FILLER_48_297
*1445 FILLER_48_3
*1446 FILLER_48_41
*1447 FILLER_48_53
*1448 FILLER_48_65
*1449 FILLER_48_77
*1450 FILLER_48_83
*1451 FILLER_48_85
*1452 FILLER_48_97
*1453 FILLER_49_105
*1454 FILLER_49_111
*1455 FILLER_49_113
*1456 FILLER_49_125
*1457 FILLER_49_137
*1458 FILLER_49_149
*1459 FILLER_49_15
*1460 FILLER_49_161
*1461 FILLER_49_167
*1462 FILLER_49_169
*1463 FILLER_49_181
*1464 FILLER_49_193
*1465 FILLER_49_205
*1466 FILLER_49_217
*1467 FILLER_49_223
*1468 FILLER_49_225
*1469 FILLER_49_237
*1470 FILLER_49_249
*1471 FILLER_49_261
*1472 FILLER_49_27
*1473 FILLER_49_273
*1474 FILLER_49_279
*1475 FILLER_49_281
*1476 FILLER_49_293
*1477 FILLER_49_3
*1478 FILLER_49_39
*1479 FILLER_49_51
*1480 FILLER_49_55
*1481 FILLER_49_57
*1482 FILLER_49_69
*1483 FILLER_49_81
*1484 FILLER_49_93
*1485 FILLER_4_109
*1486 FILLER_4_121
*1487 FILLER_4_133
*1488 FILLER_4_139
*1489 FILLER_4_141
*1490 FILLER_4_153
*1491 FILLER_4_165
*1492 FILLER_4_177
*1493 FILLER_4_189
*1494 FILLER_4_195
*1495 FILLER_4_197
*1496 FILLER_4_209
*1497 FILLER_4_221
*1498 FILLER_4_233
*1499 FILLER_4_245
*1500 FILLER_4_251
*1501 FILLER_4_253
*1502 FILLER_4_26
*1503 FILLER_4_265
*1504 FILLER_4_277
*1505 FILLER_4_289
*1506 FILLER_4_29
*1507 FILLER_4_297
*1508 FILLER_4_3
*1509 FILLER_4_41
*1510 FILLER_4_53
*1511 FILLER_4_65
*1512 FILLER_4_77
*1513 FILLER_4_83
*1514 FILLER_4_85
*1515 FILLER_4_97
*1516 FILLER_50_109
*1517 FILLER_50_121
*1518 FILLER_50_133
*1519 FILLER_50_139
*1520 FILLER_50_141
*1521 FILLER_50_15
*1522 FILLER_50_153
*1523 FILLER_50_165
*1524 FILLER_50_177
*1525 FILLER_50_189
*1526 FILLER_50_195
*1527 FILLER_50_197
*1528 FILLER_50_209
*1529 FILLER_50_221
*1530 FILLER_50_233
*1531 FILLER_50_245
*1532 FILLER_50_251
*1533 FILLER_50_253
*1534 FILLER_50_265
*1535 FILLER_50_27
*1536 FILLER_50_277
*1537 FILLER_50_289
*1538 FILLER_50_29
*1539 FILLER_50_297
*1540 FILLER_50_3
*1541 FILLER_50_41
*1542 FILLER_50_53
*1543 FILLER_50_65
*1544 FILLER_50_77
*1545 FILLER_50_83
*1546 FILLER_50_85
*1547 FILLER_50_97
*1548 FILLER_51_105
*1549 FILLER_51_111
*1550 FILLER_51_113
*1551 FILLER_51_125
*1552 FILLER_51_137
*1553 FILLER_51_149
*1554 FILLER_51_15
*1555 FILLER_51_161
*1556 FILLER_51_167
*1557 FILLER_51_169
*1558 FILLER_51_181
*1559 FILLER_51_193
*1560 FILLER_51_205
*1561 FILLER_51_217
*1562 FILLER_51_223
*1563 FILLER_51_225
*1564 FILLER_51_237
*1565 FILLER_51_249
*1566 FILLER_51_261
*1567 FILLER_51_27
*1568 FILLER_51_273
*1569 FILLER_51_279
*1570 FILLER_51_281
*1571 FILLER_51_293
*1572 FILLER_51_3
*1573 FILLER_51_39
*1574 FILLER_51_51
*1575 FILLER_51_55
*1576 FILLER_51_57
*1577 FILLER_51_69
*1578 FILLER_51_81
*1579 FILLER_51_93
*1580 FILLER_52_109
*1581 FILLER_52_121
*1582 FILLER_52_133
*1583 FILLER_52_139
*1584 FILLER_52_141
*1585 FILLER_52_15
*1586 FILLER_52_153
*1587 FILLER_52_165
*1588 FILLER_52_177
*1589 FILLER_52_189
*1590 FILLER_52_195
*1591 FILLER_52_197
*1592 FILLER_52_209
*1593 FILLER_52_221
*1594 FILLER_52_233
*1595 FILLER_52_245
*1596 FILLER_52_251