*SPEF "ieee 1481-1999"
*DESIGN "user_module_360295047631610881"
*DATE "11:11:11 Fri 11 11, 1111"
*VENDOR "OpenRCX"
*PROGRAM "Parallel Extraction"
*VERSION "1.0"
*DESIGN_FLOW "NAME_SCOPE LOCAL" "PIN_CAP NONE"
*DIVIDER /
*DELIMITER :
*BUS_DELIMITER []
*T_UNIT 1 NS
*C_UNIT 1 PF
*R_UNIT 1 OHM
*L_UNIT 1 HENRY

*NAME_MAP
*1 io_in[0]
*2 io_in[1]
*3 io_in[2]
*4 io_in[3]
*5 io_in[4]
*6 io_in[5]
*7 io_in[6]
*8 io_in[7]
*9 io_out[0]
*10 io_out[1]
*11 io_out[2]
*12 io_out[3]
*13 io_out[4]
*14 io_out[5]
*15 io_out[6]
*16 io_out[7]
*19 _000_
*20 _001_
*21 _002_
*22 _003_
*23 _004_
*24 _005_
*25 _006_
*26 _007_
*27 _008_
*28 _009_
*29 _010_
*30 _011_
*31 _012_
*32 _013_
*33 _014_
*34 _015_
*35 _016_
*36 _017_
*37 _018_
*38 _019_
*39 _020_
*40 _021_
*41 _022_
*42 _023_
*43 _024_
*44 _025_
*45 _026_
*46 _027_
*47 _028_
*48 _029_
*49 _030_
*50 _031_
*51 _032_
*52 _033_
*53 _034_
*54 _035_
*55 _036_
*56 _037_
*57 _038_
*58 _039_
*59 _040_
*60 _041_
*61 _042_
*62 _043_
*63 _044_
*64 _045_
*65 _046_
*66 _047_
*67 _048_
*68 _049_
*69 _050_
*70 _051_
*71 _052_
*72 _053_
*73 _054_
*74 _055_
*75 _056_
*76 _057_
*77 and1\.b
*78 and10\.b
*79 and11\.b
*80 and12\.b
*81 and13\.b
*82 and14\.b
*83 and15\.b
*84 and16\.b
*85 and17\.b
*86 and18\.b
*87 and19\.b
*88 and2\.b
*89 and20\.b
*90 and21\.b
*91 and22\.b
*92 and23\.b
*93 and24\.b
*94 and25\.b
*95 and26\.b
*96 and27\.b
*97 and28\.b
*98 and29\.b
*99 and3\.b
*100 and30\.b
*101 and31\.b
*102 and32\.b
*103 and33\.b
*104 and34\.b
*105 and35\.b
*106 and36\.b
*107 and37\.b
*108 and38\.b
*109 and39\.b
*110 and4\.b
*111 and40\.b
*112 and41\.b
*113 and42\.b
*114 and43\.b
*115 and44\.b
*116 and45\.b
*117 and46\.b
*118 and47\.b
*119 and48\.b
*120 and49\.b
*121 and5\.b
*122 and50\.b
*123 and51\.b
*124 and52\.b
*125 and53\.b
*126 and54\.b
*127 and55\.b
*128 and56\.b
*129 and57\.b
*130 and58\.b
*131 and59\.b
*132 and6\.b
*133 and60\.b
*134 and61\.b
*135 and62\.b
*136 and63\.b
*137 and64\.b
*138 and7\.b
*139 and8\.b
*140 and9\.b
*141 clknet_0_io_in[0]
*142 clknet_3_0__leaf_io_in[0]
*143 clknet_3_1__leaf_io_in[0]
*144 clknet_3_2__leaf_io_in[0]
*145 clknet_3_3__leaf_io_in[0]
*146 clknet_3_4__leaf_io_in[0]
*147 clknet_3_5__leaf_io_in[0]
*148 clknet_3_6__leaf_io_in[0]
*149 clknet_3_7__leaf_io_in[0]
*150 flop33\.q
*151 flop34\.q
*152 flop35\.q
*153 flop36\.q
*154 flop37\.q
*155 flop38\.q
*156 flop39\.q
*157 mux49\.out
*158 mux50\.out
*159 mux51\.out
*160 mux52\.out
*161 mux53\.out
*162 mux54\.out
*163 mux55\.out
*164 mux56\.out
*165 net1
*166 net10
*167 net11
*168 net12
*169 net13
*170 net14
*171 net15
*172 net16
*173 net17
*174 net18
*175 net19
*176 net2
*177 net20
*178 net21
*179 net22
*180 net23
*181 net24
*182 net25
*183 net26
*184 net27
*185 net28
*186 net29
*187 net3
*188 net30
*189 net31
*190 net32
*191 net33
*192 net34
*193 net35
*194 net36
*195 net37
*196 net38
*197 net39
*198 net4
*199 net40
*200 net41
*201 net42
*202 net43
*203 net44
*204 net45
*205 net5
*206 net6
*207 net7
*208 net8
*209 net9
*210 FILLER_0_103
*211 FILLER_0_111
*212 FILLER_0_113
*213 FILLER_0_131
*214 FILLER_0_139
*215 FILLER_0_141
*216 FILLER_0_159
*217 FILLER_0_167
*218 FILLER_0_169
*219 FILLER_0_181
*220 FILLER_0_193
*221 FILLER_0_197
*222 FILLER_0_209
*223 FILLER_0_22
*224 FILLER_0_221
*225 FILLER_0_225
*226 FILLER_0_237
*227 FILLER_0_249
*228 FILLER_0_253
*229 FILLER_0_265
*230 FILLER_0_277
*231 FILLER_0_281
*232 FILLER_0_29
*233 FILLER_0_293
*234 FILLER_0_3
*235 FILLER_0_37
*236 FILLER_0_54
*237 FILLER_0_57
*238 FILLER_0_79
*239 FILLER_0_83
*240 FILLER_0_85
*241 FILLER_10_107
*242 FILLER_10_119
*243 FILLER_10_127
*244 FILLER_10_138
*245 FILLER_10_141
*246 FILLER_10_153
*247 FILLER_10_165
*248 FILLER_10_177
*249 FILLER_10_189
*250 FILLER_10_195
*251 FILLER_10_197
*252 FILLER_10_209
*253 FILLER_10_221
*254 FILLER_10_233
*255 FILLER_10_245
*256 FILLER_10_251
*257 FILLER_10_253
*258 FILLER_10_26
*259 FILLER_10_265
*260 FILLER_10_277
*261 FILLER_10_289
*262 FILLER_10_29
*263 FILLER_10_297
*264 FILLER_10_3
*265 FILLER_10_39
*266 FILLER_10_63
*267 FILLER_10_71
*268 FILLER_10_82
*269 FILLER_10_85
*270 FILLER_10_89
*271 FILLER_10_9
*272 FILLER_11_107
*273 FILLER_11_111
*274 FILLER_11_113
*275 FILLER_11_125
*276 FILLER_11_137
*277 FILLER_11_149
*278 FILLER_11_15
*279 FILLER_11_161
*280 FILLER_11_167
*281 FILLER_11_169
*282 FILLER_11_181
*283 FILLER_11_193
*284 FILLER_11_205
*285 FILLER_11_217
*286 FILLER_11_223
*287 FILLER_11_225
*288 FILLER_11_237
*289 FILLER_11_249
*290 FILLER_11_261
*291 FILLER_11_273
*292 FILLER_11_279
*293 FILLER_11_281
*294 FILLER_11_293
*295 FILLER_11_3
*296 FILLER_11_36
*297 FILLER_11_44
*298 FILLER_11_54
*299 FILLER_11_57
*300 FILLER_11_75
*301 FILLER_11_9
*302 FILLER_11_95
*303 FILLER_12_103
*304 FILLER_12_115
*305 FILLER_12_127
*306 FILLER_12_138
*307 FILLER_12_141
*308 FILLER_12_153
*309 FILLER_12_165
*310 FILLER_12_177
*311 FILLER_12_189
*312 FILLER_12_195
*313 FILLER_12_197
*314 FILLER_12_209
*315 FILLER_12_221
*316 FILLER_12_233
*317 FILLER_12_245
*318 FILLER_12_251
*319 FILLER_12_253
*320 FILLER_12_26
*321 FILLER_12_265
*322 FILLER_12_277
*323 FILLER_12_289
*324 FILLER_12_29
*325 FILLER_12_297
*326 FILLER_12_3
*327 FILLER_12_41
*328 FILLER_12_65
*329 FILLER_12_77
*330 FILLER_12_83
*331 FILLER_12_85
*332 FILLER_12_9
*333 FILLER_12_93
*334 FILLER_13_111
*335 FILLER_13_113
*336 FILLER_13_125
*337 FILLER_13_137
*338 FILLER_13_149
*339 FILLER_13_161
*340 FILLER_13_167
*341 FILLER_13_169
*342 FILLER_13_181
*343 FILLER_13_193
*344 FILLER_13_205
*345 FILLER_13_217
*346 FILLER_13_22
*347 FILLER_13_223
*348 FILLER_13_225
*349 FILLER_13_237
*350 FILLER_13_249
*351 FILLER_13_261
*352 FILLER_13_273
*353 FILLER_13_279
*354 FILLER_13_281
*355 FILLER_13_293
*356 FILLER_13_3
*357 FILLER_13_42
*358 FILLER_13_54
*359 FILLER_13_57
*360 FILLER_13_75
*361 FILLER_13_87
*362 FILLER_13_99
*363 FILLER_14_104
*364 FILLER_14_116
*365 FILLER_14_128
*366 FILLER_14_141
*367 FILLER_14_153
*368 FILLER_14_165
*369 FILLER_14_177
*370 FILLER_14_189
*371 FILLER_14_195
*372 FILLER_14_197
*373 FILLER_14_209
*374 FILLER_14_221
*375 FILLER_14_23
*376 FILLER_14_233
*377 FILLER_14_245
*378 FILLER_14_251
*379 FILLER_14_253
*380 FILLER_14_265
*381 FILLER_14_27
*382 FILLER_14_277
*383 FILLER_14_289
*384 FILLER_14_29
*385 FILLER_14_297
*386 FILLER_14_3
*387 FILLER_14_47
*388 FILLER_14_54
*389 FILLER_14_58
*390 FILLER_14_75
*391 FILLER_14_83
*392 FILLER_14_85
*393 FILLER_14_93
*394 FILLER_15_111
*395 FILLER_15_113
*396 FILLER_15_125
*397 FILLER_15_137
*398 FILLER_15_14
*399 FILLER_15_149
*400 FILLER_15_161
*401 FILLER_15_167
*402 FILLER_15_169
*403 FILLER_15_181
*404 FILLER_15_193
*405 FILLER_15_205
*406 FILLER_15_217
*407 FILLER_15_223
*408 FILLER_15_225
*409 FILLER_15_237
*410 FILLER_15_249
*411 FILLER_15_261
*412 FILLER_15_273
*413 FILLER_15_279
*414 FILLER_15_281
*415 FILLER_15_293
*416 FILLER_15_3
*417 FILLER_15_34
*418 FILLER_15_54
*419 FILLER_15_57
*420 FILLER_15_75
*421 FILLER_15_87
*422 FILLER_15_99
*423 FILLER_16_105
*424 FILLER_16_117
*425 FILLER_16_138
*426 FILLER_16_141
*427 FILLER_16_153
*428 FILLER_16_165
*429 FILLER_16_177
*430 FILLER_16_189
*431 FILLER_16_195
*432 FILLER_16_197
*433 FILLER_16_209
*434 FILLER_16_221
*435 FILLER_16_233
*436 FILLER_16_245
*437 FILLER_16_25
*438 FILLER_16_251
*439 FILLER_16_253
*440 FILLER_16_265
*441 FILLER_16_277
*442 FILLER_16_289
*443 FILLER_16_29
*444 FILLER_16_297
*445 FILLER_16_3
*446 FILLER_16_41
*447 FILLER_16_65
*448 FILLER_16_77
*449 FILLER_16_83
*450 FILLER_16_85
*451 FILLER_16_93
*452 FILLER_17_103
*453 FILLER_17_111
*454 FILLER_17_113
*455 FILLER_17_125
*456 FILLER_17_147
*457 FILLER_17_15
*458 FILLER_17_159
*459 FILLER_17_167
*460 FILLER_17_169
*461 FILLER_17_181
*462 FILLER_17_193
*463 FILLER_17_205
*464 FILLER_17_217
*465 FILLER_17_223
*466 FILLER_17_225
*467 FILLER_17_237
*468 FILLER_17_249
*469 FILLER_17_261
*470 FILLER_17_273
*471 FILLER_17_279
*472 FILLER_17_281
*473 FILLER_17_293
*474 FILLER_17_3
*475 FILLER_17_36
*476 FILLER_17_42
*477 FILLER_17_51
*478 FILLER_17_55
*479 FILLER_17_57
*480 FILLER_17_75
*481 FILLER_17_87
*482 FILLER_17_93
*483 FILLER_18_106
*484 FILLER_18_118
*485 FILLER_18_130
*486 FILLER_18_138
*487 FILLER_18_141
*488 FILLER_18_152
*489 FILLER_18_179
*490 FILLER_18_191
*491 FILLER_18_195
*492 FILLER_18_197
*493 FILLER_18_209
*494 FILLER_18_221
*495 FILLER_18_233
*496 FILLER_18_245
*497 FILLER_18_251
*498 FILLER_18_253
*499 FILLER_18_26
*500 FILLER_18_265
*501 FILLER_18_277
*502 FILLER_18_289
*503 FILLER_18_29
*504 FILLER_18_297
*505 FILLER_18_3
*506 FILLER_18_53
*507 FILLER_18_73
*508 FILLER_18_81
*509 FILLER_18_85
*510 FILLER_18_9
*511 FILLER_19_111
*512 FILLER_19_113
*513 FILLER_19_125
*514 FILLER_19_14
*515 FILLER_19_142
*516 FILLER_19_154
*517 FILLER_19_166
*518 FILLER_19_169
*519 FILLER_19_181
*520 FILLER_19_193
*521 FILLER_19_205
*522 FILLER_19_217
*523 FILLER_19_223
*524 FILLER_19_225
*525 FILLER_19_237
*526 FILLER_19_249
*527 FILLER_19_261
*528 FILLER_19_273
*529 FILLER_19_279
*530 FILLER_19_281
*531 FILLER_19_293
*532 FILLER_19_3
*533 FILLER_19_34
*534 FILLER_19_54
*535 FILLER_19_57
*536 FILLER_19_75
*537 FILLER_19_87
*538 FILLER_19_99
*539 FILLER_1_108
*540 FILLER_1_113
*541 FILLER_1_131
*542 FILLER_1_143
*543 FILLER_1_15
*544 FILLER_1_155
*545 FILLER_1_167
*546 FILLER_1_169
*547 FILLER_1_181
*548 FILLER_1_193
*549 FILLER_1_205
*550 FILLER_1_217
*551 FILLER_1_223
*552 FILLER_1_225
*553 FILLER_1_237
*554 FILLER_1_249
*555 FILLER_1_261
*556 FILLER_1_273
*557 FILLER_1_279
*558 FILLER_1_281
*559 FILLER_1_293
*560 FILLER_1_3
*561 FILLER_1_36
*562 FILLER_1_44
*563 FILLER_1_54
*564 FILLER_1_57
*565 FILLER_1_75
*566 FILLER_1_95
*567 FILLER_20_106
*568 FILLER_20_118
*569 FILLER_20_130
*570 FILLER_20_138
*571 FILLER_20_141
*572 FILLER_20_153
*573 FILLER_20_165
*574 FILLER_20_177
*575 FILLER_20_189
*576 FILLER_20_195
*577 FILLER_20_197
*578 FILLER_20_209
*579 FILLER_20_221
*580 FILLER_20_23
*581 FILLER_20_233
*582 FILLER_20_245
*583 FILLER_20_251
*584 FILLER_20_253
*585 FILLER_20_265
*586 FILLER_20_27
*587 FILLER_20_277
*588 FILLER_20_289
*589 FILLER_20_29
*590 FILLER_20_297
*591 FILLER_20_3
*592 FILLER_20_47
*593 FILLER_20_55
*594 FILLER_20_73
*595 FILLER_20_81
*596 FILLER_20_85
*597 FILLER_21_106
*598 FILLER_21_113
*599 FILLER_21_125
*600 FILLER_21_137
*601 FILLER_21_149
*602 FILLER_21_161
*603 FILLER_21_167
*604 FILLER_21_169
*605 FILLER_21_181
*606 FILLER_21_193
*607 FILLER_21_205
*608 FILLER_21_217
*609 FILLER_21_223
*610 FILLER_21_225
*611 FILLER_21_23
*612 FILLER_21_237
*613 FILLER_21_249
*614 FILLER_21_261
*615 FILLER_21_27
*616 FILLER_21_273
*617 FILLER_21_279
*618 FILLER_21_281
*619 FILLER_21_293
*620 FILLER_21_3
*621 FILLER_21_36
*622 FILLER_21_44
*623 FILLER_21_54
*624 FILLER_21_57
*625 FILLER_21_75
*626 FILLER_21_87
*627 FILLER_22_109
*628 FILLER_22_121
*629 FILLER_22_132
*630 FILLER_22_141
*631 FILLER_22_153
*632 FILLER_22_165
*633 FILLER_22_177
*634 FILLER_22_189
*635 FILLER_22_195
*636 FILLER_22_197
*637 FILLER_22_209
*638 FILLER_22_221
*639 FILLER_22_23
*640 FILLER_22_233
*641 FILLER_22_245
*642 FILLER_22_251
*643 FILLER_22_253
*644 FILLER_22_265
*645 FILLER_22_27
*646 FILLER_22_277
*647 FILLER_22_289
*648 FILLER_22_29
*649 FILLER_22_297
*650 FILLER_22_3
*651 FILLER_22_41
*652 FILLER_22_53
*653 FILLER_22_61
*654 FILLER_22_70
*655 FILLER_22_82
*656 FILLER_22_85
*657 FILLER_23_101
*658 FILLER_23_109
*659 FILLER_23_113
*660 FILLER_23_125
*661 FILLER_23_137
*662 FILLER_23_149
*663 FILLER_23_16
*664 FILLER_23_161
*665 FILLER_23_167
*666 FILLER_23_169
*667 FILLER_23_181
*668 FILLER_23_193
*669 FILLER_23_205
*670 FILLER_23_217
*671 FILLER_23_223
*672 FILLER_23_225
*673 FILLER_23_237
*674 FILLER_23_24
*675 FILLER_23_249
*676 FILLER_23_261
*677 FILLER_23_273
*678 FILLER_23_279
*679 FILLER_23_281
*680 FILLER_23_293
*681 FILLER_23_3
*682 FILLER_23_36
*683 FILLER_23_42
*684 FILLER_23_51
*685 FILLER_23_55
*686 FILLER_23_57
*687 FILLER_23_69
*688 FILLER_23_7
*689 FILLER_23_81
*690 FILLER_23_89
*691 FILLER_24_11
*692 FILLER_24_111
*693 FILLER_24_138
*694 FILLER_24_141
*695 FILLER_24_153
*696 FILLER_24_165
*697 FILLER_24_177
*698 FILLER_24_189
*699 FILLER_24_195
*700 FILLER_24_197
*701 FILLER_24_209
*702 FILLER_24_221
*703 FILLER_24_23
*704 FILLER_24_233
*705 FILLER_24_245
*706 FILLER_24_251
*707 FILLER_24_253
*708 FILLER_24_265
*709 FILLER_24_27
*710 FILLER_24_277
*711 FILLER_24_289
*712 FILLER_24_29
*713 FILLER_24_297
*714 FILLER_24_3
*715 FILLER_24_33
*716 FILLER_24_43
*717 FILLER_24_53
*718 FILLER_24_57
*719 FILLER_24_67
*720 FILLER_24_80
*721 FILLER_24_85
*722 FILLER_24_89
*723 FILLER_24_99
*724 FILLER_25_100
*725 FILLER_25_113
*726 FILLER_25_125
*727 FILLER_25_137
*728 FILLER_25_149
*729 FILLER_25_161
*730 FILLER_25_167
*731 FILLER_25_169
*732 FILLER_25_18
*733 FILLER_25_181
*734 FILLER_25_193
*735 FILLER_25_205
*736 FILLER_25_217
*737 FILLER_25_223
*738 FILLER_25_225
*739 FILLER_25_237
*740 FILLER_25_249
*741 FILLER_25_261
*742 FILLER_25_273
*743 FILLER_25_279
*744 FILLER_25_281
*745 FILLER_25_293
*746 FILLER_25_3
*747 FILLER_25_31
*748 FILLER_25_44
*749 FILLER_25_54
*750 FILLER_25_57
*751 FILLER_25_67
*752 FILLER_25_88
*753 FILLER_26_107
*754 FILLER_26_115
*755 FILLER_26_12
*756 FILLER_26_126
*757 FILLER_26_138
*758 FILLER_26_141
*759 FILLER_26_153
*760 FILLER_26_165
*761 FILLER_26_177
*762 FILLER_26_189
*763 FILLER_26_195
*764 FILLER_26_197
*765 FILLER_26_209
*766 FILLER_26_221
*767 FILLER_26_233
*768 FILLER_26_245
*769 FILLER_26_25
*770 FILLER_26_251
*771 FILLER_26_253
*772 FILLER_26_265
*773 FILLER_26_277
*774 FILLER_26_289
*775 FILLER_26_29
*776 FILLER_26_297
*777 FILLER_26_3
*778 FILLER_26_37
*779 FILLER_26_41
*780 FILLER_26_51
*781 FILLER_26_64
*782 FILLER_26_77
*783 FILLER_26_83
*784 FILLER_26_85
*785 FILLER_26_95
*786 FILLER_27_108
*787 FILLER_27_11
*788 FILLER_27_113
*789 FILLER_27_125
*790 FILLER_27_138
*791 FILLER_27_150
*792 FILLER_27_162
*793 FILLER_27_169
*794 FILLER_27_181
*795 FILLER_27_193
*796 FILLER_27_205
*797 FILLER_27_217
*798 FILLER_27_223
*799 FILLER_27_225
*800 FILLER_27_23
*801 FILLER_27_237
*802 FILLER_27_249
*803 FILLER_27_261
*804 FILLER_27_273
*805 FILLER_27_279
*806 FILLER_27_281
*807 FILLER_27_293
*808 FILLER_27_3
*809 FILLER_27_33
*810 FILLER_27_45
*811 FILLER_27_53
*812 FILLER_27_57
*813 FILLER_27_65
*814 FILLER_27_72
*815 FILLER_27_84
*816 FILLER_27_96
*817 FILLER_28_114
*818 FILLER_28_126
*819 FILLER_28_138
*820 FILLER_28_141
*821 FILLER_28_153
*822 FILLER_28_165
*823 FILLER_28_177
*824 FILLER_28_189
*825 FILLER_28_19
*826 FILLER_28_195
*827 FILLER_28_197
*828 FILLER_28_209
*829 FILLER_28_221
*830 FILLER_28_233
*831 FILLER_28_245
*832 FILLER_28_251
*833 FILLER_28_253
*834 FILLER_28_265
*835 FILLER_28_27
*836 FILLER_28_277
*837 FILLER_28_289
*838 FILLER_28_29
*839 FILLER_28_297
*840 FILLER_28_3
*841 FILLER_28_41
*842 FILLER_28_53
*843 FILLER_28_65
*844 FILLER_28_77
*845 FILLER_28_83
*846 FILLER_28_85
*847 FILLER_28_97
*848 FILLER_29_105
*849 FILLER_29_111
*850 FILLER_29_113
*851 FILLER_29_125
*852 FILLER_29_137
*853 FILLER_29_149
*854 FILLER_29_15
*855 FILLER_29_161
*856 FILLER_29_167
*857 FILLER_29_169
*858 FILLER_29_181
*859 FILLER_29_193
*860 FILLER_29_205
*861 FILLER_29_217
*862 FILLER_29_223
*863 FILLER_29_225
*864 FILLER_29_237
*865 FILLER_29_249
*866 FILLER_29_261
*867 FILLER_29_27
*868 FILLER_29_273
*869 FILLER_29_279
*870 FILLER_29_281
*871 FILLER_29_293
*872 FILLER_29_3
*873 FILLER_29_39
*874 FILLER_29_51
*875 FILLER_29_55
*876 FILLER_29_57
*877 FILLER_29_69
*878 FILLER_29_81
*879 FILLER_29_93
*880 FILLER_2_103
*881 FILLER_2_123
*882 FILLER_2_135
*883 FILLER_2_139
*884 FILLER_2_141
*885 FILLER_2_153
*886 FILLER_2_165
*887 FILLER_2_177
*888 FILLER_2_189
*889 FILLER_2_195
*890 FILLER_2_197
*891 FILLER_2_209
*892 FILLER_2_221
*893 FILLER_2_233
*894 FILLER_2_245
*895 FILLER_2_251
*896 FILLER_2_253
*897 FILLER_2_26
*898 FILLER_2_265
*899 FILLER_2_277
*900 FILLER_2_289
*901 FILLER_2_29
*902 FILLER_2_297
*903 FILLER_2_3
*904 FILLER_2_33
*905 FILLER_2_50
*906 FILLER_2_70
*907 FILLER_2_82
*908 FILLER_2_85
*909 FILLER_2_9
*910 FILLER_30_109
*911 FILLER_30_121
*912 FILLER_30_133
*913 FILLER_30_139
*914 FILLER_30_141
*915 FILLER_30_15
*916 FILLER_30_153
*917 FILLER_30_165
*918 FILLER_30_177
*919 FILLER_30_189
*920 FILLER_30_195
*921 FILLER_30_197
*922 FILLER_30_209
*923 FILLER_30_221
*924 FILLER_30_233
*925 FILLER_30_245
*926 FILLER_30_251
*927 FILLER_30_253
*928 FILLER_30_265
*929 FILLER_30_27
*930 FILLER_30_277
*931 FILLER_30_289
*932 FILLER_30_29
*933 FILLER_30_297
*934 FILLER_30_3
*935 FILLER_30_41
*936 FILLER_30_53
*937 FILLER_30_65
*938 FILLER_30_77
*939 FILLER_30_83
*940 FILLER_30_85
*941 FILLER_30_97
*942 FILLER_31_105
*943 FILLER_31_111
*944 FILLER_31_113
*945 FILLER_31_125
*946 FILLER_31_137
*947 FILLER_31_149
*948 FILLER_31_161
*949 FILLER_31_167
*950 FILLER_31_169
*951 FILLER_31_181
*952 FILLER_31_19
*953 FILLER_31_193
*954 FILLER_31_205
*955 FILLER_31_217
*956 FILLER_31_223
*957 FILLER_31_225
*958 FILLER_31_237
*959 FILLER_31_249
*960 FILLER_31_261
*961 FILLER_31_273
*962 FILLER_31_279
*963 FILLER_31_281
*964 FILLER_31_293
*965 FILLER_31_3
*966 FILLER_31_31
*967 FILLER_31_43
*968 FILLER_31_55
*969 FILLER_31_57
*970 FILLER_31_69
*971 FILLER_31_81
*972 FILLER_31_93
*973 FILLER_32_109
*974 FILLER_32_11
*975 FILLER_32_121
*976 FILLER_32_133
*977 FILLER_32_139
*978 FILLER_32_141
*979 FILLER_32_153
*980 FILLER_32_165
*981 FILLER_32_177
*982 FILLER_32_189
*983 FILLER_32_195
*984 FILLER_32_197
*985 FILLER_32_209
*986 FILLER_32_21
*987 FILLER_32_221
*988 FILLER_32_233
*989 FILLER_32_245
*990 FILLER_32_251
*991 FILLER_32_253
*992 FILLER_32_265
*993 FILLER_32_27
*994 FILLER_32_277
*995 FILLER_32_289
*996 FILLER_32_29
*997 FILLER_32_297
*998 FILLER_32_3
*999 FILLER_32_50
*1000 FILLER_32_62
*1001 FILLER_32_74
*1002 FILLER_32_82
*1003 FILLER_32_85
*1004 FILLER_32_97
*1005 FILLER_33_103
*1006 FILLER_33_111
*1007 FILLER_33_113
*1008 FILLER_33_125
*1009 FILLER_33_137
*1010 FILLER_33_149
*1011 FILLER_33_161
*1012 FILLER_33_167
*1013 FILLER_33_169
*1014 FILLER_33_181
*1015 FILLER_33_19
*1016 FILLER_33_193
*1017 FILLER_33_205
*1018 FILLER_33_217
*1019 FILLER_33_223
*1020 FILLER_33_225
*1021 FILLER_33_237
*1022 FILLER_33_249
*1023 FILLER_33_261
*1024 FILLER_33_27
*1025 FILLER_33_273
*1026 FILLER_33_279
*1027 FILLER_33_281
*1028 FILLER_33_293
*1029 FILLER_33_3
*1030 FILLER_33_39
*1031 FILLER_33_54
*1032 FILLER_33_57
*1033 FILLER_33_63
*1034 FILLER_33_69
*1035 FILLER_33_79
*1036 FILLER_33_9
*1037 FILLER_33_91
*1038 FILLER_34_109
*1039 FILLER_34_121
*1040 FILLER_34_133
*1041 FILLER_34_139
*1042 FILLER_34_141
*1043 FILLER_34_153
*1044 FILLER_34_165
*1045 FILLER_34_177
*1046 FILLER_34_189
*1047 FILLER_34_195
*1048 FILLER_34_197
*1049 FILLER_34_209
*1050 FILLER_34_22
*1051 FILLER_34_221
*1052 FILLER_34_233
*1053 FILLER_34_245
*1054 FILLER_34_251
*1055 FILLER_34_253
*1056 FILLER_34_265
*1057 FILLER_34_277
*1058 FILLER_34_289
*1059 FILLER_34_29
*1060 FILLER_34_297
*1061 FILLER_34_3
*1062 FILLER_34_50
*1063 FILLER_34_62
*1064 FILLER_34_71
*1065 FILLER_34_83
*1066 FILLER_34_85
*1067 FILLER_34_9
*1068 FILLER_34_97
*1069 FILLER_35_105
*1070 FILLER_35_111
*1071 FILLER_35_113
*1072 FILLER_35_125
*1073 FILLER_35_137
*1074 FILLER_35_149
*1075 FILLER_35_161
*1076 FILLER_35_167
*1077 FILLER_35_169
*1078 FILLER_35_181
*1079 FILLER_35_19
*1080 FILLER_35_193
*1081 FILLER_35_205
*1082 FILLER_35_217
*1083 FILLER_35_223
*1084 FILLER_35_225
*1085 FILLER_35_237
*1086 FILLER_35_249
*1087 FILLER_35_261
*1088 FILLER_35_273
*1089 FILLER_35_279
*1090 FILLER_35_281
*1091 FILLER_35_293
*1092 FILLER_35_3
*1093 FILLER_35_31
*1094 FILLER_35_43
*1095 FILLER_35_55
*1096 FILLER_35_57
*1097 FILLER_35_69
*1098 FILLER_35_81
*1099 FILLER_35_93
*1100 FILLER_36_109
*1101 FILLER_36_121
*1102 FILLER_36_133
*1103 FILLER_36_139
*1104 FILLER_36_141
*1105 FILLER_36_15
*1106 FILLER_36_153
*1107 FILLER_36_165
*1108 FILLER_36_177
*1109 FILLER_36_189
*1110 FILLER_36_195
*1111 FILLER_36_197
*1112 FILLER_36_209
*1113 FILLER_36_221
*1114 FILLER_36_233
*1115 FILLER_36_245
*1116 FILLER_36_251
*1117 FILLER_36_253
*1118 FILLER_36_265
*1119 FILLER_36_27
*1120 FILLER_36_277
*1121 FILLER_36_289
*1122 FILLER_36_29
*1123 FILLER_36_297
*1124 FILLER_36_3
*1125 FILLER_36_41
*1126 FILLER_36_53
*1127 FILLER_36_65
*1128 FILLER_36_77
*1129 FILLER_36_83
*1130 FILLER_36_85
*1131 FILLER_36_97
*1132 FILLER_37_105
*1133 FILLER_37_11
*1134 FILLER_37_111
*1135 FILLER_37_113
*1136 FILLER_37_125
*1137 FILLER_37_137
*1138 FILLER_37_149
*1139 FILLER_37_161
*1140 FILLER_37_167
*1141 FILLER_37_169
*1142 FILLER_37_17
*1143 FILLER_37_181
*1144 FILLER_37_193
*1145 FILLER_37_205
*1146 FILLER_37_217
*1147 FILLER_37_223
*1148 FILLER_37_225
*1149 FILLER_37_237
*1150 FILLER_37_249
*1151 FILLER_37_25
*1152 FILLER_37_261
*1153 FILLER_37_273
*1154 FILLER_37_279
*1155 FILLER_37_281
*1156 FILLER_37_293
*1157 FILLER_37_3
*1158 FILLER_37_37
*1159 FILLER_37_49
*1160 FILLER_37_55
*1161 FILLER_37_57
*1162 FILLER_37_69
*1163 FILLER_37_81
*1164 FILLER_37_93
*1165 FILLER_38_109
*1166 FILLER_38_121
*1167 FILLER_38_133
*1168 FILLER_38_139
*1169 FILLER_38_141
*1170 FILLER_38_153
*1171 FILLER_38_165
*1172 FILLER_38_177
*1173 FILLER_38_189
*1174 FILLER_38_195
*1175 FILLER_38_197
*1176 FILLER_38_209
*1177 FILLER_38_221
*1178 FILLER_38_233
*1179 FILLER_38_24
*1180 FILLER_38_245
*1181 FILLER_38_251
*1182 FILLER_38_253
*1183 FILLER_38_265
*1184 FILLER_38_277
*1185 FILLER_38_289
*1186 FILLER_38_29
*1187 FILLER_38_297
*1188 FILLER_38_3
*1189 FILLER_38_41
*1190 FILLER_38_53
*1191 FILLER_38_65
*1192 FILLER_38_77
*1193 FILLER_38_83
*1194 FILLER_38_85
*1195 FILLER_38_97
*1196 FILLER_39_105
*1197 FILLER_39_111
*1198 FILLER_39_113
*1199 FILLER_39_125
*1200 FILLER_39_13
*1201 FILLER_39_137
*1202 FILLER_39_149
*1203 FILLER_39_161
*1204 FILLER_39_167
*1205 FILLER_39_169
*1206 FILLER_39_181
*1207 FILLER_39_193
*1208 FILLER_39_205
*1209 FILLER_39_217
*1210 FILLER_39_223
*1211 FILLER_39_225
*1212 FILLER_39_237
*1213 FILLER_39_249
*1214 FILLER_39_26
*1215 FILLER_39_261
*1216 FILLER_39_273
*1217 FILLER_39_279
*1218 FILLER_39_281
*1219 FILLER_39_293
*1220 FILLER_39_3
*1221 FILLER_39_38
*1222 FILLER_39_50
*1223 FILLER_39_57
*1224 FILLER_39_69
*1225 FILLER_39_81
*1226 FILLER_39_93
*1227 FILLER_3_108
*1228 FILLER_3_113
*1229 FILLER_3_123
*1230 FILLER_3_135
*1231 FILLER_3_147
*1232 FILLER_3_159
*1233 FILLER_3_167
*1234 FILLER_3_169
*1235 FILLER_3_181
*1236 FILLER_3_193
*1237 FILLER_3_205
*1238 FILLER_3_217
*1239 FILLER_3_223
*1240 FILLER_3_225
*1241 FILLER_3_237
*1242 FILLER_3_249
*1243 FILLER_3_261
*1244 FILLER_3_27
*1245 FILLER_3_273
*1246 FILLER_3_279
*1247 FILLER_3_281
*1248 FILLER_3_293
*1249 FILLER_3_3
*1250 FILLER_3_47
*1251 FILLER_3_55
*1252 FILLER_3_57
*1253 FILLER_3_75
*1254 FILLER_3_95
*1255 FILLER_40_109
*1256 FILLER_40_121
*1257 FILLER_40_13
*1258 FILLER_40_133
*1259 FILLER_40_139
*1260 FILLER_40_141
*1261 FILLER_40_153
*1262 FILLER_40_165
*1263 FILLER_40_177
*1264 FILLER_40_189
*1265 FILLER_40_195
*1266 FILLER_40_197
*1267 FILLER_40_209
*1268 FILLER_40_21
*1269 FILLER_40_221
*1270 FILLER_40_233
*1271 FILLER_40_245
*1272 FILLER_40_251
*1273 FILLER_40_253
*1274 FILLER_40_265
*1275 FILLER_40_27
*1276 FILLER_40_277
*1277 FILLER_40_289
*1278 FILLER_40_29
*1279 FILLER_40_297
*1280 FILLER_40_3
*1281 FILLER_40_41
*1282 FILLER_40_53
*1283 FILLER_40_65
*1284 FILLER_40_77
*1285 FILLER_40_83
*1286 FILLER_40_85
*1287 FILLER_40_97
*1288 FILLER_41_105
*1289 FILLER_41_111
*1290 FILLER_41_113
*1291 FILLER_41_125
*1292 FILLER_41_137
*1293 FILLER_41_149
*1294 FILLER_41_15
*1295 FILLER_41_161
*1296 FILLER_41_167
*1297 FILLER_41_169
*1298 FILLER_41_181
*1299 FILLER_41_193
*1300 FILLER_41_205
*1301 FILLER_41_217
*1302 FILLER_41_223
*1303 FILLER_41_225
*1304 FILLER_41_237
*1305 FILLER_41_249
*1306 FILLER_41_261
*1307 FILLER_41_27
*1308 FILLER_41_273
*1309 FILLER_41_279
*1310 FILLER_41_281
*1311 FILLER_41_293
*1312 FILLER_41_3
*1313 FILLER_41_39
*1314 FILLER_41_51
*1315 FILLER_41_55
*1316 FILLER_41_57
*1317 FILLER_41_69
*1318 FILLER_41_81
*1319 FILLER_41_93
*1320 FILLER_42_109
*1321 FILLER_42_121
*1322 FILLER_42_133
*1323 FILLER_42_139
*1324 FILLER_42_141
*1325 FILLER_42_15
*1326 FILLER_42_153
*1327 FILLER_42_165
*1328 FILLER_42_177
*1329 FILLER_42_189
*1330 FILLER_42_195
*1331 FILLER_42_197
*1332 FILLER_42_209
*1333 FILLER_42_221
*1334 FILLER_42_233
*1335 FILLER_42_245
*1336 FILLER_42_251
*1337 FILLER_42_253
*1338 FILLER_42_265
*1339 FILLER_42_27
*1340 FILLER_42_277
*1341 FILLER_42_289
*1342 FILLER_42_29
*1343 FILLER_42_297
*1344 FILLER_42_3
*1345 FILLER_42_41
*1346 FILLER_42_53
*1347 FILLER_42_65
*1348 FILLER_42_77
*1349 FILLER_42_83
*1350 FILLER_42_85
*1351 FILLER_42_97
*1352 FILLER_43_105
*1353 FILLER_43_111
*1354 FILLER_43_113
*1355 FILLER_43_125
*1356 FILLER_43_137
*1357 FILLER_43_149
*1358 FILLER_43_15
*1359 FILLER_43_161
*1360 FILLER_43_167
*1361 FILLER_43_169
*1362 FILLER_43_181
*1363 FILLER_43_193
*1364 FILLER_43_205
*1365 FILLER_43_217
*1366 FILLER_43_223
*1367 FILLER_43_225
*1368 FILLER_43_237
*1369 FILLER_43_249
*1370 FILLER_43_261
*1371 FILLER_43_27
*1372 FILLER_43_273
*1373 FILLER_43_279
*1374 FILLER_43_281
*1375 FILLER_43_293
*1376 FILLER_43_3
*1377 FILLER_43_39
*1378 FILLER_43_51
*1379 FILLER_43_55
*1380 FILLER_43_57
*1381 FILLER_43_69
*1382 FILLER_43_81
*1383 FILLER_43_93
*1384 FILLER_44_109
*1385 FILLER_44_121
*1386 FILLER_44_133
*1387 FILLER_44_139
*1388 FILLER_44_141
*1389 FILLER_44_15
*1390 FILLER_44_153
*1391 FILLER_44_165
*1392 FILLER_44_177
*1393 FILLER_44_189
*1394 FILLER_44_195
*1395 FILLER_44_197
*1396 FILLER_44_209
*1397 FILLER_44_221
*1398 FILLER_44_233
*1399 FILLER_44_245
*1400 FILLER_44_251
*1401 FILLER_44_253
*1402 FILLER_44_265
*1403 FILLER_44_27
*1404 FILLER_44_277
*1405 FILLER_44_289
*1406 FILLER_44_29
*1407 FILLER_44_297
*1408 FILLER_44_3
*1409 FILLER_44_41
*1410 FILLER_44_53
*1411 FILLER_44_65
*1412 FILLER_44_77
*1413 FILLER_44_83
*1414 FILLER_44_85
*1415 FILLER_44_97
*1416 FILLER_45_105
*1417 FILLER_45_111
*1418 FILLER_45_113
*1419 FILLER_45_125
*1420 FILLER_45_137
*1421 FILLER_45_149
*1422 FILLER_45_15
*1423 FILLER_45_161
*1424 FILLER_45_167
*1425 FILLER_45_169
*1426 FILLER_45_181
*1427 FILLER_45_193
*1428 FILLER_45_205
*1429 FILLER_45_217
*1430 FILLER_45_223
*1431 FILLER_45_225
*1432 FILLER_45_237
*1433 FILLER_45_249
*1434 FILLER_45_261
*1435 FILLER_45_27
*1436 FILLER_45_273
*1437 FILLER_45_279
*1438 FILLER_45_281
*1439 FILLER_45_293
*1440 FILLER_45_3
*1441 FILLER_45_39
*1442 FILLER_45_51
*1443 FILLER_45_55
*1444 FILLER_45_57
*1445 FILLER_45_69
*1446 FILLER_45_81
*1447 FILLER_45_93
*1448 FILLER_46_109
*1449 FILLER_46_121
*1450 FILLER_46_133
*1451 FILLER_46_139
*1452 FILLER_46_141
*1453 FILLER_46_15
*1454 FILLER_46_153
*1455 FILLER_46_165
*1456 FILLER_46_177
*1457 FILLER_46_189
*1458 FILLER_46_195
*1459 FILLER_46_197
*1460 FILLER_46_209
*1461 FILLER_46_221
*1462 FILLER_46_233
*1463 FILLER_46_245
*1464 FILLER_46_251
*1465 FILLER_46_253
*1466 FILLER_46_265
*1467 FILLER_46_27
*1468 FILLER_46_277
*1469 FILLER_46_289
*1470 FILLER_46_29
*1471 FILLER_46_297
*1472 FILLER_46_3
*1473 FILLER_46_41
*1474 FILLER_46_53
*1475 FILLER_46_65
*1476 FILLER_46_77
*1477 FILLER_46_83
*1478 FILLER_46_85
*1479 FILLER_46_97
*1480 FILLER_47_105
*1481 FILLER_47_111
*1482 FILLER_47_113
*1483 FILLER_47_125
*1484 FILLER_47_137
*1485 FILLER_47_149
*1486 FILLER_47_15
*1487 FILLER_47_161
*1488 FILLER_47_167
*1489 FILLER_47_169
*1490 FILLER_47_181
*1491 FILLER_47_193
*1492 FILLER_47_205
*1493 FILLER_47_217
*1494 FILLER_47_223
*1495 FILLER_47_225
*1496 FILLER_47_237
*1497 FILLER_47_249
*1498 FILLER_47_261
*1499 FILLER_47_27
*1500 FILLER_47_273
*1501 FILLER_47_279
*1502 FILLER_47_281
*1503 FILLER_47_293
*1504 FILLER_47_3
*1505 FILLER_47_39
*1506 FILLER_47_51
*1507 FILLER_47_55
*1508 FILLER_47_57
*1509 FILLER_47_69
*1510 FILLER_47_81
*1511 FILLER_47_93
*1512 FILLER_48_109
*1513 FILLER_48_121
*1514 FILLER_48_133
*1515 FILLER_48_139
*1516 FILLER_48_141
*1517 FILLER_48_15
*1518 FILLER_48_153
*1519 FILLER_48_165
*1520 FILLER_48_177
*1521 FILLER_48_189
*1522 FILLER_48_19
*1523 FILLER_48_195
*1524 FILLER_48_197
*1525 FILLER_48_209
*1526 FILLER_48_221
*1527 FILLER_48_233
*1528 FILLER_48_24
*1529 FILLER_48_245
*1530 FILLER_48_251
*1531 FILLER_48_253
*1532 FILLER_48_265
*1533 FILLER_48_277
*1534 FILLER_48_289
*1535 FILLER_48_29
*1536 FILLER_48_297
*1537 FILLER_48_3
*1538 FILLER_48_41
*1539 FILLER_48_53
*1540 FILLER_48_65
*1541 FILLER_48_77
*1542 FILLER_48_83
*1543 FILLER_48_85
*1544 FILLER_48_97
*1545 FILLER_49_105
*1546 FILLER_49_111
*1547 FILLER_49_113
*1548 FILLER_49_125
*1549 FILLER_49_137
*1550 FILLER_49_149
*1551 FILLER_49_15
*1552 FILLER_49_161
*1553 FILLER_49_167
*1554 FILLER_49_169
*1555 FILLER_49_181
*1556 FILLER_49_193
*1557 FILLER_49_205
*1558 FILLER_49_217
*1559 FILLER_49_223
*1560 FILLER_49_225
*1561 FILLER_49_237
*1562 FILLER_49_249
*1563 FILLER_49_261
*1564 FILLER_49_27
*1565 FILLER_49_273
*1566 FILLER_49_279
*1567 FILLER_49_281
*1568 FILLER_49_293
*1569 FILLER_49_3
*1570 FILLER_49_39
*1571 FILLER_49_51
*1572 FILLER_49_55
*1573 FILLER_49_57
*1574 FILLER_49_69
*1575 FILLER_49_81
*1576 FILLER_49_93
*1577 FILLER_4_103
*1578 FILLER_4_123
*1579 FILLER_4_138
*1580 FILLER_4_141
*1581 FILLER_4_153
*1582 FILLER_4_165
*1583 FILLER_4_177
*1584 FILLER_4_189
*1585 FILLER_4_195
*1586 FILLER_4_197
*1587 FILLER_4_209
*1588 FILLER_4_22
*1589 FILLER_4_221
*1590 FILLER_4_233
*1591 FILLER_4_245
*1592 FILLER_4_251
*1593 FILLER_4_253
*1594 FILLER_4_265
*1595 FILLER_4_277
*1596 FILLER_4_289
*1597 FILLER_4_29
*1598 FILLER_4_297
*1599 FILLER_4_3
*1600 FILLER_4_47
*1601 FILLER_4_53
*1602 FILLER_4_70
*1603 FILLER_4_82
*1604 FILLER_4_85
*1605 FILLER_50_109
*1606 FILLER_50_121
*1607 FILLER_50_133
*1608 FILLER_50_139
*1609 FILLER_50_141
*1610 FILLER_50_15
*1611 FILLER_50_153
*1612 FILLER_50_165
*1613 FILLER_50_177
*1614 FILLER_50_189
*1615 FILLER_50_195
*1616 FILLER_50_197
*1617 FILLER_50_209
*1618 FILLER_50_221
*1619 FILLER_50_233
*1620 FILLER_50_245
*1621 FILLER_50_251
*1622 FILLER_50_253
*1623 FILLER_50_265
*1624 FILLER_50_27
*1625 FILLER_50_277
*1626 FILLER_50_289
*1627 FILLER_50_29
*1628 FILLER_50_297
*1629 FILLER_50_3
*1630 FILLER_50_41
*1631 FILLER_50_53
*1632 FILLER_50_65
*1633 FILLER_50_77