*SPEF "ieee 1481-1999"
*DESIGN "user_module_skylersaleh"
*DATE "11:11:11 Fri 11 11, 1111"
*VENDOR "OpenRCX"
*PROGRAM "Parallel Extraction"
*VERSION "1.0"
*DESIGN_FLOW "NAME_SCOPE LOCAL" "PIN_CAP NONE"
*DIVIDER /
*DELIMITER :
*BUS_DELIMITER []
*T_UNIT 1 NS
*C_UNIT 1 PF
*R_UNIT 1 OHM
*L_UNIT 1 HENRY

*NAME_MAP
*1 io_in[0]
*2 io_in[1]
*3 io_in[2]
*4 io_in[3]
*5 io_in[4]
*6 io_in[5]
*7 io_in[6]
*8 io_in[7]
*9 io_out[0]
*10 io_out[1]
*11 io_out[2]
*12 io_out[3]
*13 io_out[4]
*14 io_out[5]
*15 io_out[6]
*16 io_out[7]
*19 _000_
*20 _001_
*21 _002_
*22 _003_
*23 _004_
*24 _005_
*25 _006_
*26 _007_
*27 _008_
*28 _009_
*29 _010_
*30 _011_
*31 _012_
*32 _013_
*33 _014_
*34 _015_
*35 _016_
*36 _017_
*37 _018_
*38 _019_
*39 _020_
*40 _021_
*41 _022_
*42 _023_
*43 _024_
*44 _025_
*45 _026_
*46 _027_
*47 _028_
*48 _029_
*49 _030_
*50 _031_
*51 _032_
*52 _033_
*53 _034_
*54 _035_
*55 _036_
*56 _037_
*57 _038_
*58 _039_
*59 _040_
*60 _041_
*61 _042_
*62 _043_
*63 _044_
*64 _045_
*65 _046_
*66 _047_
*67 _048_
*68 _049_
*69 _050_
*70 _051_
*71 _052_
*72 _053_
*73 _054_
*74 _055_
*75 _056_
*76 _057_
*77 _058_
*78 _059_
*79 _060_
*80 _061_
*81 _062_
*82 _063_
*83 _064_
*84 _065_
*85 _066_
*86 _067_
*87 _068_
*88 _069_
*89 _070_
*90 _071_
*91 _072_
*92 _073_
*93 _074_
*94 _075_
*95 _076_
*96 _077_
*97 _078_
*98 clknet_0_io_in[0]
*99 clknet_1_0__leaf_io_in[0]
*100 clknet_1_1__leaf_io_in[0]
*101 hello_core\.clock_div\[0\]
*102 hello_core\.clock_div\[10\]
*103 hello_core\.clock_div\[11\]
*104 hello_core\.clock_div\[12\]
*105 hello_core\.clock_div\[13\]
*106 hello_core\.clock_div\[14\]
*107 hello_core\.clock_div\[15\]
*108 hello_core\.clock_div\[1\]
*109 hello_core\.clock_div\[2\]
*110 hello_core\.clock_div\[3\]
*111 hello_core\.clock_div\[4\]
*112 hello_core\.clock_div\[5\]
*113 hello_core\.clock_div\[6\]
*114 hello_core\.clock_div\[7\]
*115 hello_core\.clock_div\[8\]
*116 hello_core\.clock_div\[9\]
*117 hello_core\.decimal
*118 hello_core\.slow_clock
*119 hello_core\.state\[0\]
*120 hello_core\.state\[1\]
*121 hello_core\.state\[2\]
*122 net1
*123 net2
*124 net3
*125 net4
*126 net5
*127 net6
*128 net7
*129 FILLER_0_109
*130 FILLER_0_113
*131 FILLER_0_125
*132 FILLER_0_137
*133 FILLER_0_141
*134 FILLER_0_153
*135 FILLER_0_165
*136 FILLER_0_169
*137 FILLER_0_181
*138 FILLER_0_193
*139 FILLER_0_197
*140 FILLER_0_209
*141 FILLER_0_221
*142 FILLER_0_225
*143 FILLER_0_237
*144 FILLER_0_249
*145 FILLER_0_253
*146 FILLER_0_26
*147 FILLER_0_265
*148 FILLER_0_277
*149 FILLER_0_281
*150 FILLER_0_29
*151 FILLER_0_293
*152 FILLER_0_3
*153 FILLER_0_35
*154 FILLER_0_52
*155 FILLER_0_57
*156 FILLER_0_75
*157 FILLER_0_83
*158 FILLER_0_85
*159 FILLER_0_9
*160 FILLER_0_97
*161 FILLER_10_105
*162 FILLER_10_114
*163 FILLER_10_126
*164 FILLER_10_138
*165 FILLER_10_141
*166 FILLER_10_153
*167 FILLER_10_165
*168 FILLER_10_177
*169 FILLER_10_189
*170 FILLER_10_195
*171 FILLER_10_197
*172 FILLER_10_209
*173 FILLER_10_21
*174 FILLER_10_221
*175 FILLER_10_233
*176 FILLER_10_245
*177 FILLER_10_251
*178 FILLER_10_253
*179 FILLER_10_265
*180 FILLER_10_27
*181 FILLER_10_277
*182 FILLER_10_289
*183 FILLER_10_29
*184 FILLER_10_297
*185 FILLER_10_3
*186 FILLER_10_37
*187 FILLER_10_46
*188 FILLER_10_58
*189 FILLER_10_70
*190 FILLER_10_82
*191 FILLER_10_85
*192 FILLER_10_97
*193 FILLER_11_107
*194 FILLER_11_111
*195 FILLER_11_113
*196 FILLER_11_125
*197 FILLER_11_137
*198 FILLER_11_149
*199 FILLER_11_161
*200 FILLER_11_167
*201 FILLER_11_169
*202 FILLER_11_181
*203 FILLER_11_193
*204 FILLER_11_205
*205 FILLER_11_21
*206 FILLER_11_217
*207 FILLER_11_223
*208 FILLER_11_225
*209 FILLER_11_237
*210 FILLER_11_249
*211 FILLER_11_261
*212 FILLER_11_273
*213 FILLER_11_279
*214 FILLER_11_281
*215 FILLER_11_293
*216 FILLER_11_3
*217 FILLER_11_33
*218 FILLER_11_45
*219 FILLER_11_53
*220 FILLER_11_57
*221 FILLER_11_69
*222 FILLER_11_81
*223 FILLER_11_89
*224 FILLER_11_95
*225 FILLER_12_105
*226 FILLER_12_110
*227 FILLER_12_122
*228 FILLER_12_134
*229 FILLER_12_141
*230 FILLER_12_153
*231 FILLER_12_165
*232 FILLER_12_177
*233 FILLER_12_189
*234 FILLER_12_195
*235 FILLER_12_197
*236 FILLER_12_209
*237 FILLER_12_21
*238 FILLER_12_221
*239 FILLER_12_233
*240 FILLER_12_245
*241 FILLER_12_251
*242 FILLER_12_253
*243 FILLER_12_265
*244 FILLER_12_27
*245 FILLER_12_277
*246 FILLER_12_289
*247 FILLER_12_29
*248 FILLER_12_297
*249 FILLER_12_3
*250 FILLER_12_34
*251 FILLER_12_46
*252 FILLER_12_58
*253 FILLER_12_70
*254 FILLER_12_82
*255 FILLER_12_85
*256 FILLER_12_9
*257 FILLER_12_97
*258 FILLER_13_105
*259 FILLER_13_111
*260 FILLER_13_113
*261 FILLER_13_125
*262 FILLER_13_137
*263 FILLER_13_141
*264 FILLER_13_15
*265 FILLER_13_151
*266 FILLER_13_163
*267 FILLER_13_167
*268 FILLER_13_169
*269 FILLER_13_181
*270 FILLER_13_193
*271 FILLER_13_205
*272 FILLER_13_217
*273 FILLER_13_223
*274 FILLER_13_225
*275 FILLER_13_237
*276 FILLER_13_249
*277 FILLER_13_261
*278 FILLER_13_27
*279 FILLER_13_273
*280 FILLER_13_279
*281 FILLER_13_281
*282 FILLER_13_293
*283 FILLER_13_3
*284 FILLER_13_33
*285 FILLER_13_44
*286 FILLER_13_57
*287 FILLER_13_68
*288 FILLER_13_93
*289 FILLER_14_109
*290 FILLER_14_121
*291 FILLER_14_133
*292 FILLER_14_139
*293 FILLER_14_141
*294 FILLER_14_15
*295 FILLER_14_153
*296 FILLER_14_165
*297 FILLER_14_177
*298 FILLER_14_189
*299 FILLER_14_195
*300 FILLER_14_197
*301 FILLER_14_209
*302 FILLER_14_221
*303 FILLER_14_233
*304 FILLER_14_245
*305 FILLER_14_251
*306 FILLER_14_253
*307 FILLER_14_265
*308 FILLER_14_27
*309 FILLER_14_277
*310 FILLER_14_289
*311 FILLER_14_29
*312 FILLER_14_297
*313 FILLER_14_3
*314 FILLER_14_41
*315 FILLER_14_53
*316 FILLER_14_65
*317 FILLER_14_77
*318 FILLER_14_83
*319 FILLER_14_85
*320 FILLER_14_97
*321 FILLER_15_110
*322 FILLER_15_113
*323 FILLER_15_125
*324 FILLER_15_137
*325 FILLER_15_14
*326 FILLER_15_149
*327 FILLER_15_161
*328 FILLER_15_167
*329 FILLER_15_169
*330 FILLER_15_178
*331 FILLER_15_18
*332 FILLER_15_190
*333 FILLER_15_202
*334 FILLER_15_214
*335 FILLER_15_222
*336 FILLER_15_225
*337 FILLER_15_237
*338 FILLER_15_249
*339 FILLER_15_261
*340 FILLER_15_273
*341 FILLER_15_279
*342 FILLER_15_281
*343 FILLER_15_293
*344 FILLER_15_3
*345 FILLER_15_30
*346 FILLER_15_42
*347 FILLER_15_54
*348 FILLER_15_57
*349 FILLER_15_65
*350 FILLER_15_73
*351 FILLER_15_8
*352 FILLER_15_85
*353 FILLER_15_89
*354 FILLER_15_97
*355 FILLER_16_109
*356 FILLER_16_121
*357 FILLER_16_133
*358 FILLER_16_139
*359 FILLER_16_141
*360 FILLER_16_153
*361 FILLER_16_165
*362 FILLER_16_177
*363 FILLER_16_189
*364 FILLER_16_195
*365 FILLER_16_197
*366 FILLER_16_20
*367 FILLER_16_209
*368 FILLER_16_221
*369 FILLER_16_233
*370 FILLER_16_245
*371 FILLER_16_251
*372 FILLER_16_253
*373 FILLER_16_265
*374 FILLER_16_277
*375 FILLER_16_289
*376 FILLER_16_29
*377 FILLER_16_297
*378 FILLER_16_3
*379 FILLER_16_41
*380 FILLER_16_53
*381 FILLER_16_65
*382 FILLER_16_77
*383 FILLER_16_8
*384 FILLER_16_83
*385 FILLER_16_85
*386 FILLER_16_97
*387 FILLER_17_111
*388 FILLER_17_113
*389 FILLER_17_125
*390 FILLER_17_137
*391 FILLER_17_149
*392 FILLER_17_15
*393 FILLER_17_161
*394 FILLER_17_167
*395 FILLER_17_169
*396 FILLER_17_181
*397 FILLER_17_193
*398 FILLER_17_205
*399 FILLER_17_217
*400 FILLER_17_223
*401 FILLER_17_225
*402 FILLER_17_237
*403 FILLER_17_249
*404 FILLER_17_261
*405 FILLER_17_27
*406 FILLER_17_273
*407 FILLER_17_279
*408 FILLER_17_281
*409 FILLER_17_293
*410 FILLER_17_3
*411 FILLER_17_39
*412 FILLER_17_51
*413 FILLER_17_55
*414 FILLER_17_57
*415 FILLER_17_72
*416 FILLER_17_84
*417 FILLER_17_92
*418 FILLER_17_99
*419 FILLER_18_109
*420 FILLER_18_11
*421 FILLER_18_121
*422 FILLER_18_133
*423 FILLER_18_139
*424 FILLER_18_141
*425 FILLER_18_153
*426 FILLER_18_165
*427 FILLER_18_177
*428 FILLER_18_18
*429 FILLER_18_189
*430 FILLER_18_195
*431 FILLER_18_197
*432 FILLER_18_209
*433 FILLER_18_221
*434 FILLER_18_233
*435 FILLER_18_245
*436 FILLER_18_251
*437 FILLER_18_253
*438 FILLER_18_26
*439 FILLER_18_265
*440 FILLER_18_277
*441 FILLER_18_289
*442 FILLER_18_29
*443 FILLER_18_297
*444 FILLER_18_3
*445 FILLER_18_39
*446 FILLER_18_51
*447 FILLER_18_63
*448 FILLER_18_75
*449 FILLER_18_83
*450 FILLER_18_85
*451 FILLER_18_97
*452 FILLER_19_105
*453 FILLER_19_111
*454 FILLER_19_113
*455 FILLER_19_124
*456 FILLER_19_136
*457 FILLER_19_148
*458 FILLER_19_15
*459 FILLER_19_160
*460 FILLER_19_169
*461 FILLER_19_181
*462 FILLER_19_193
*463 FILLER_19_205
*464 FILLER_19_217
*465 FILLER_19_223
*466 FILLER_19_225
*467 FILLER_19_237
*468 FILLER_19_249
*469 FILLER_19_261
*470 FILLER_19_27
*471 FILLER_19_273
*472 FILLER_19_279
*473 FILLER_19_281
*474 FILLER_19_293
*475 FILLER_19_3
*476 FILLER_19_39
*477 FILLER_19_51
*478 FILLER_19_55
*479 FILLER_19_57
*480 FILLER_19_69
*481 FILLER_19_81
*482 FILLER_19_93
*483 FILLER_1_104
*484 FILLER_1_113
*485 FILLER_1_123
*486 FILLER_1_134
*487 FILLER_1_142
*488 FILLER_1_148
*489 FILLER_1_15
*490 FILLER_1_160
*491 FILLER_1_169
*492 FILLER_1_181
*493 FILLER_1_193
*494 FILLER_1_205
*495 FILLER_1_217
*496 FILLER_1_223
*497 FILLER_1_225
*498 FILLER_1_237
*499 FILLER_1_249
*500 FILLER_1_261
*501 FILLER_1_273
*502 FILLER_1_279
*503 FILLER_1_281
*504 FILLER_1_293
*505 FILLER_1_3
*506 FILLER_1_36
*507 FILLER_1_48
*508 FILLER_1_57
*509 FILLER_1_63
*510 FILLER_1_71
*511 FILLER_1_83
*512 FILLER_1_87
*513 FILLER_1_92
*514 FILLER_20_109
*515 FILLER_20_121
*516 FILLER_20_133
*517 FILLER_20_139
*518 FILLER_20_141
*519 FILLER_20_153
*520 FILLER_20_165
*521 FILLER_20_177
*522 FILLER_20_189
*523 FILLER_20_195
*524 FILLER_20_197
*525 FILLER_20_20
*526 FILLER_20_209
*527 FILLER_20_221
*528 FILLER_20_233
*529 FILLER_20_245
*530 FILLER_20_251
*531 FILLER_20_253
*532 FILLER_20_265
*533 FILLER_20_277
*534 FILLER_20_289
*535 FILLER_20_29
*536 FILLER_20_297
*537 FILLER_20_3
*538 FILLER_20_35
*539 FILLER_20_47
*540 FILLER_20_59
*541 FILLER_20_71
*542 FILLER_20_8
*543 FILLER_20_83
*544 FILLER_20_85
*545 FILLER_20_97
*546 FILLER_21_105
*547 FILLER_21_111
*548 FILLER_21_113
*549 FILLER_21_125
*550 FILLER_21_137
*551 FILLER_21_149
*552 FILLER_21_15
*553 FILLER_21_161
*554 FILLER_21_167
*555 FILLER_21_169
*556 FILLER_21_181
*557 FILLER_21_193
*558 FILLER_21_205
*559 FILLER_21_217
*560 FILLER_21_223
*561 FILLER_21_225
*562 FILLER_21_237
*563 FILLER_21_249
*564 FILLER_21_261
*565 FILLER_21_27
*566 FILLER_21_273
*567 FILLER_21_279
*568 FILLER_21_281
*569 FILLER_21_293
*570 FILLER_21_3
*571 FILLER_21_33
*572 FILLER_21_39
*573 FILLER_21_43
*574 FILLER_21_55
*575 FILLER_21_57
*576 FILLER_21_69
*577 FILLER_21_81
*578 FILLER_21_93
*579 FILLER_22_109
*580 FILLER_22_121
*581 FILLER_22_133
*582 FILLER_22_139
*583 FILLER_22_141
*584 FILLER_22_15
*585 FILLER_22_153
*586 FILLER_22_165
*587 FILLER_22_177
*588 FILLER_22_189
*589 FILLER_22_195
*590 FILLER_22_197
*591 FILLER_22_209
*592 FILLER_22_221
*593 FILLER_22_233
*594 FILLER_22_245
*595 FILLER_22_25
*596 FILLER_22_251
*597 FILLER_22_253
*598 FILLER_22_265
*599 FILLER_22_277
*600 FILLER_22_289
*601 FILLER_22_29
*602 FILLER_22_297
*603 FILLER_22_3
*604 FILLER_22_41
*605 FILLER_22_53
*606 FILLER_22_65
*607 FILLER_22_77
*608 FILLER_22_83
*609 FILLER_22_85
*610 FILLER_22_97
*611 FILLER_23_105
*612 FILLER_23_111
*613 FILLER_23_113
*614 FILLER_23_125
*615 FILLER_23_137
*616 FILLER_23_15
*617 FILLER_23_150
*618 FILLER_23_162
*619 FILLER_23_169
*620 FILLER_23_181
*621 FILLER_23_193
*622 FILLER_23_205
*623 FILLER_23_217
*624 FILLER_23_223
*625 FILLER_23_225
*626 FILLER_23_237
*627 FILLER_23_249
*628 FILLER_23_261
*629 FILLER_23_27
*630 FILLER_23_273
*631 FILLER_23_279
*632 FILLER_23_281
*633 FILLER_23_293
*634 FILLER_23_3
*635 FILLER_23_35
*636 FILLER_23_54
*637 FILLER_23_57
*638 FILLER_23_69
*639 FILLER_23_73
*640 FILLER_23_81
*641 FILLER_23_93
*642 FILLER_24_109
*643 FILLER_24_121
*644 FILLER_24_133
*645 FILLER_24_139
*646 FILLER_24_141
*647 FILLER_24_153
*648 FILLER_24_165
*649 FILLER_24_177
*650 FILLER_24_189
*651 FILLER_24_195
*652 FILLER_24_197
*653 FILLER_24_209
*654 FILLER_24_21
*655 FILLER_24_221
*656 FILLER_24_233
*657 FILLER_24_245
*658 FILLER_24_251
*659 FILLER_24_253
*660 FILLER_24_265
*661 FILLER_24_27
*662 FILLER_24_277
*663 FILLER_24_289
*664 FILLER_24_29
*665 FILLER_24_297
*666 FILLER_24_3
*667 FILLER_24_41
*668 FILLER_24_47
*669 FILLER_24_64
*670 FILLER_24_77
*671 FILLER_24_83
*672 FILLER_24_85
*673 FILLER_24_9
*674 FILLER_24_97
*675 FILLER_25_105
*676 FILLER_25_111
*677 FILLER_25_113
*678 FILLER_25_125
*679 FILLER_25_137
*680 FILLER_25_149
*681 FILLER_25_15
*682 FILLER_25_161
*683 FILLER_25_167
*684 FILLER_25_169
*685 FILLER_25_181
*686 FILLER_25_193
*687 FILLER_25_205
*688 FILLER_25_217
*689 FILLER_25_223
*690 FILLER_25_225
*691 FILLER_25_237
*692 FILLER_25_249
*693 FILLER_25_261
*694 FILLER_25_27
*695 FILLER_25_273
*696 FILLER_25_279
*697 FILLER_25_281
*698 FILLER_25_293
*699 FILLER_25_3
*700 FILLER_25_39
*701 FILLER_25_51
*702 FILLER_25_55
*703 FILLER_25_57
*704 FILLER_25_65
*705 FILLER_25_69
*706 FILLER_25_81
*707 FILLER_25_93
*708 FILLER_26_109
*709 FILLER_26_121
*710 FILLER_26_133
*711 FILLER_26_139
*712 FILLER_26_141
*713 FILLER_26_15
*714 FILLER_26_153
*715 FILLER_26_165
*716 FILLER_26_177
*717 FILLER_26_189
*718 FILLER_26_195
*719 FILLER_26_197
*720 FILLER_26_209
*721 FILLER_26_221
*722 FILLER_26_233
*723 FILLER_26_245
*724 FILLER_26_251
*725 FILLER_26_253
*726 FILLER_26_265
*727 FILLER_26_27
*728 FILLER_26_277
*729 FILLER_26_289
*730 FILLER_26_29
*731 FILLER_26_297
*732 FILLER_26_3
*733 FILLER_26_41
*734 FILLER_26_53
*735 FILLER_26_65
*736 FILLER_26_77
*737 FILLER_26_83
*738 FILLER_26_85
*739 FILLER_26_97
*740 FILLER_27_104
*741 FILLER_27_113
*742 FILLER_27_125
*743 FILLER_27_137
*744 FILLER_27_149
*745 FILLER_27_161
*746 FILLER_27_167
*747 FILLER_27_169
*748 FILLER_27_181
*749 FILLER_27_193
*750 FILLER_27_205
*751 FILLER_27_21
*752 FILLER_27_217
*753 FILLER_27_223
*754 FILLER_27_225
*755 FILLER_27_237
*756 FILLER_27_249
*757 FILLER_27_261
*758 FILLER_27_273
*759 FILLER_27_279
*760 FILLER_27_281
*761 FILLER_27_293
*762 FILLER_27_3
*763 FILLER_27_33
*764 FILLER_27_45
*765 FILLER_27_53
*766 FILLER_27_57
*767 FILLER_27_69
*768 FILLER_27_80
*769 FILLER_27_9
*770 FILLER_27_92
*771 FILLER_28_109
*772 FILLER_28_121
*773 FILLER_28_129
*774 FILLER_28_137
*775 FILLER_28_141
*776 FILLER_28_15
*777 FILLER_28_153
*778 FILLER_28_165
*779 FILLER_28_177
*780 FILLER_28_189
*781 FILLER_28_195
*782 FILLER_28_197
*783 FILLER_28_209
*784 FILLER_28_221
*785 FILLER_28_233
*786 FILLER_28_245
*787 FILLER_28_251
*788 FILLER_28_253
*789 FILLER_28_265
*790 FILLER_28_27
*791 FILLER_28_277
*792 FILLER_28_289
*793 FILLER_28_29
*794 FILLER_28_297
*795 FILLER_28_3
*796 FILLER_28_36
*797 FILLER_28_48
*798 FILLER_28_53
*799 FILLER_28_65
*800 FILLER_28_77
*801 FILLER_28_83
*802 FILLER_28_85
*803 FILLER_28_97
*804 FILLER_29_109
*805 FILLER_29_113
*806 FILLER_29_125
*807 FILLER_29_137
*808 FILLER_29_149
*809 FILLER_29_161
*810 FILLER_29_167
*811 FILLER_29_169
*812 FILLER_29_17
*813 FILLER_29_181
*814 FILLER_29_193
*815 FILLER_29_205
*816 FILLER_29_217
*817 FILLER_29_223
*818 FILLER_29_225
*819 FILLER_29_237
*820 FILLER_29_249
*821 FILLER_29_25
*822 FILLER_29_261
*823 FILLER_29_273
*824 FILLER_29_279
*825 FILLER_29_281
*826 FILLER_29_29
*827 FILLER_29_293
*828 FILLER_29_3
*829 FILLER_29_54
*830 FILLER_29_57
*831 FILLER_29_69
*832 FILLER_29_77
*833 FILLER_29_85
*834 FILLER_29_97
*835 FILLER_2_100
*836 FILLER_2_112
*837 FILLER_2_124
*838 FILLER_2_136
*839 FILLER_2_141
*840 FILLER_2_153
*841 FILLER_2_165
*842 FILLER_2_177
*843 FILLER_2_189
*844 FILLER_2_195
*845 FILLER_2_197
*846 FILLER_2_209
*847 FILLER_2_221
*848 FILLER_2_233
*849 FILLER_2_245
*850 FILLER_2_251
*851 FILLER_2_253
*852 FILLER_2_26
*853 FILLER_2_265
*854 FILLER_2_277
*855 FILLER_2_289
*856 FILLER_2_29
*857 FILLER_2_297
*858 FILLER_2_3
*859 FILLER_2_48
*860 FILLER_2_68
*861 FILLER_2_80
*862 FILLER_2_85
*863 FILLER_2_9
*864 FILLER_30_109
*865 FILLER_30_121
*866 FILLER_30_133
*867 FILLER_30_139
*868 FILLER_30_141
*869 FILLER_30_15
*870 FILLER_30_153
*871 FILLER_30_165
*872 FILLER_30_177
*873 FILLER_30_189
*874 FILLER_30_195
*875 FILLER_30_197
*876 FILLER_30_209
*877 FILLER_30_221
*878 FILLER_30_233
*879 FILLER_30_245
*880 FILLER_30_251
*881 FILLER_30_253
*882 FILLER_30_265
*883 FILLER_30_27
*884 FILLER_30_277
*885 FILLER_30_289
*886 FILLER_30_29
*887 FILLER_30_297
*888 FILLER_30_3
*889 FILLER_30_41
*890 FILLER_30_53
*891 FILLER_30_65
*892 FILLER_30_77
*893 FILLER_30_83
*894 FILLER_30_85
*895 FILLER_30_97
*896 FILLER_31_105
*897 FILLER_31_111
*898 FILLER_31_113
*899 FILLER_31_125
*900 FILLER_31_137
*901 FILLER_31_149
*902 FILLER_31_15
*903 FILLER_31_161
*904 FILLER_31_167
*905 FILLER_31_169
*906 FILLER_31_181
*907 FILLER_31_193
*908 FILLER_31_205
*909 FILLER_31_21
*910 FILLER_31_217
*911 FILLER_31_223
*912 FILLER_31_225
*913 FILLER_31_237
*914 FILLER_31_249
*915 FILLER_31_26
*916 FILLER_31_261
*917 FILLER_31_273
*918 FILLER_31_279
*919 FILLER_31_281
*920 FILLER_31_293
*921 FILLER_31_3
*922 FILLER_31_38
*923 FILLER_31_44
*924 FILLER_31_50
*925 FILLER_31_57
*926 FILLER_31_69
*927 FILLER_31_81
*928 FILLER_31_93
*929 FILLER_32_109
*930 FILLER_32_121
*931 FILLER_32_133
*932 FILLER_32_139
*933 FILLER_32_141
*934 FILLER_32_15
*935 FILLER_32_153
*936 FILLER_32_165
*937 FILLER_32_177
*938 FILLER_32_189
*939 FILLER_32_195
*940 FILLER_32_197
*941 FILLER_32_209
*942 FILLER_32_221
*943 FILLER_32_233
*944 FILLER_32_245
*945 FILLER_32_251
*946 FILLER_32_253
*947 FILLER_32_265
*948 FILLER_32_27
*949 FILLER_32_277
*950 FILLER_32_289
*951 FILLER_32_29
*952 FILLER_32_297
*953 FILLER_32_3
*954 FILLER_32_41
*955 FILLER_32_47
*956 FILLER_32_59
*957 FILLER_32_71
*958 FILLER_32_83
*959 FILLER_32_85
*960 FILLER_32_97
*961 FILLER_33_105
*962 FILLER_33_111
*963 FILLER_33_113
*964 FILLER_33_125
*965 FILLER_33_137
*966 FILLER_33_149
*967 FILLER_33_15
*968 FILLER_33_161
*969 FILLER_33_167
*970 FILLER_33_169
*971 FILLER_33_181
*972 FILLER_33_193
*973 FILLER_33_205
*974 FILLER_33_217
*975 FILLER_33_223
*976 FILLER_33_225
*977 FILLER_33_237
*978 FILLER_33_249
*979 FILLER_33_261
*980 FILLER_33_27
*981 FILLER_33_273
*982 FILLER_33_279
*983 FILLER_33_281
*984 FILLER_33_293
*985 FILLER_33_3
*986 FILLER_33_37
*987 FILLER_33_49
*988 FILLER_33_55
*989 FILLER_33_57
*990 FILLER_33_69
*991 FILLER_33_81
*992 FILLER_33_93
*993 FILLER_34_109
*994 FILLER_34_121
*995 FILLER_34_133
*996 FILLER_34_139
*997 FILLER_34_141
*998 FILLER_34_15
*999 FILLER_34_153
*1000 FILLER_34_165
*1001 FILLER_34_177
*1002 FILLER_34_189
*1003 FILLER_34_195
*1004 FILLER_34_197
*1005 FILLER_34_209
*1006 FILLER_34_221
*1007 FILLER_34_233
*1008 FILLER_34_245
*1009 FILLER_34_251
*1010 FILLER_34_253
*1011 FILLER_34_265
*1012 FILLER_34_27
*1013 FILLER_34_277
*1014 FILLER_34_289
*1015 FILLER_34_29
*1016 FILLER_34_297
*1017 FILLER_34_3
*1018 FILLER_34_41
*1019 FILLER_34_53
*1020 FILLER_34_65
*1021 FILLER_34_77
*1022 FILLER_34_83
*1023 FILLER_34_85
*1024 FILLER_34_97
*1025 FILLER_35_101
*1026 FILLER_35_109
*1027 FILLER_35_113
*1028 FILLER_35_125
*1029 FILLER_35_137
*1030 FILLER_35_149
*1031 FILLER_35_15
*1032 FILLER_35_161
*1033 FILLER_35_167
*1034 FILLER_35_169
*1035 FILLER_35_181
*1036 FILLER_35_193
*1037 FILLER_35_205
*1038 FILLER_35_217
*1039 FILLER_35_223
*1040 FILLER_35_225
*1041 FILLER_35_237
*1042 FILLER_35_249
*1043 FILLER_35_261
*1044 FILLER_35_27
*1045 FILLER_35_273
*1046 FILLER_35_279
*1047 FILLER_35_281
*1048 FILLER_35_293
*1049 FILLER_35_3
*1050 FILLER_35_39
*1051 FILLER_35_51
*1052 FILLER_35_55
*1053 FILLER_35_57
*1054 FILLER_35_69
*1055 FILLER_35_89
*1056 FILLER_36_109
*1057 FILLER_36_121
*1058 FILLER_36_133
*1059 FILLER_36_139
*1060 FILLER_36_141
*1061 FILLER_36_15
*1062 FILLER_36_153
*1063 FILLER_36_165
*1064 FILLER_36_177
*1065 FILLER_36_189
*1066 FILLER_36_195
*1067 FILLER_36_197
*1068 FILLER_36_209
*1069 FILLER_36_221
*1070 FILLER_36_233
*1071 FILLER_36_245
*1072 FILLER_36_251
*1073 FILLER_36_253
*1074 FILLER_36_265
*1075 FILLER_36_27
*1076 FILLER_36_277
*1077 FILLER_36_289
*1078 FILLER_36_29
*1079 FILLER_36_297
*1080 FILLER_36_3
*1081 FILLER_36_41
*1082 FILLER_36_53
*1083 FILLER_36_65
*1084 FILLER_36_77
*1085 FILLER_36_83
*1086 FILLER_36_85
*1087 FILLER_36_97
*1088 FILLER_37_110
*1089 FILLER_37_113
*1090 FILLER_37_125
*1091 FILLER_37_137
*1092 FILLER_37_149
*1093 FILLER_37_15
*1094 FILLER_37_161
*1095 FILLER_37_167
*1096 FILLER_37_169
*1097 FILLER_37_181
*1098 FILLER_37_193
*1099 FILLER_37_205
*1100 FILLER_37_217
*1101 FILLER_37_223
*1102 FILLER_37_225
*1103 FILLER_37_237
*1104 FILLER_37_249
*1105 FILLER_37_261
*1106 FILLER_37_27
*1107 FILLER_37_273
*1108 FILLER_37_279
*1109 FILLER_37_281
*1110 FILLER_37_293
*1111 FILLER_37_3
*1112 FILLER_37_39
*1113 FILLER_37_51
*1114 FILLER_37_55
*1115 FILLER_37_57
*1116 FILLER_37_69
*1117 FILLER_37_73
*1118 FILLER_37_82
*1119 FILLER_37_90
*1120 FILLER_37_98
*1121 FILLER_38_109
*1122 FILLER_38_121
*1123 FILLER_38_133
*1124 FILLER_38_139
*1125 FILLER_38_141
*1126 FILLER_38_15
*1127 FILLER_38_153
*1128 FILLER_38_165
*1129 FILLER_38_177
*1130 FILLER_38_189
*1131 FILLER_38_195
*1132 FILLER_38_197
*1133 FILLER_38_209
*1134 FILLER_38_21
*1135 FILLER_38_221
*1136 FILLER_38_233
*1137 FILLER_38_245
*1138 FILLER_38_251
*1139 FILLER_38_253
*1140 FILLER_38_265
*1141 FILLER_38_27
*1142 FILLER_38_277
*1143 FILLER_38_289
*1144 FILLER_38_29
*1145 FILLER_38_297
*1146 FILLER_38_3
*1147 FILLER_38_41
*1148 FILLER_38_53
*1149 FILLER_38_65
*1150 FILLER_38_73
*1151 FILLER_38_82
*1152 FILLER_38_85
*1153 FILLER_38_97
*1154 FILLER_39_111
*1155 FILLER_39_113
*1156 FILLER_39_125
*1157 FILLER_39_137
*1158 FILLER_39_149
*1159 FILLER_39_15
*1160 FILLER_39_161
*1161 FILLER_39_167
*1162 FILLER_39_169
*1163 FILLER_39_181
*1164 FILLER_39_193
*1165 FILLER_39_205
*1166 FILLER_39_217
*1167 FILLER_39_223
*1168 FILLER_39_225
*1169 FILLER_39_237
*1170 FILLER_39_249
*1171 FILLER_39_261
*1172 FILLER_39_27
*1173 FILLER_39_273
*1174 FILLER_39_279
*1175 FILLER_39_281
*1176 FILLER_39_293
*1177 FILLER_39_3
*1178 FILLER_39_39
*1179 FILLER_39_51
*1180 FILLER_39_55
*1181 FILLER_39_57
*1182 FILLER_39_75
*1183 FILLER_39_87
*1184 FILLER_39_99
*1185 FILLER_3_102
*1186 FILLER_3_110
*1187 FILLER_3_113
*1188 FILLER_3_125
*1189 FILLER_3_137
*1190 FILLER_3_149
*1191 FILLER_3_161
*1192 FILLER_3_167
*1193 FILLER_3_169
*1194 FILLER_3_181
*1195 FILLER_3_193
*1196 FILLER_3_205
*1197 FILLER_3_217
*1198 FILLER_3_223
*1199 FILLER_3_225
*1200 FILLER_3_237
*1201 FILLER_3_249
*1202 FILLER_3_261
*1203 FILLER_3_273
*1204 FILLER_3_279
*1205 FILLER_3_281
*1206 FILLER_3_293
*1207 FILLER_3_3
*1208 FILLER_3_32
*1209 FILLER_3_52
*1210 FILLER_3_57
*1211 FILLER_3_62
*1212 FILLER_3_74
*1213 FILLER_3_86
*1214 FILLER_3_98
*1215 FILLER_40_109
*1216 FILLER_40_114
*1217 FILLER_40_126
*1218 FILLER_40_138
*1219 FILLER_40_141
*1220 FILLER_40_15
*1221 FILLER_40_153
*1222 FILLER_40_165
*1223 FILLER_40_177
*1224 FILLER_40_189
*1225 FILLER_40_195
*1226 FILLER_40_197
*1227 FILLER_40_209
*1228 FILLER_40_221
*1229 FILLER_40_233
*1230 FILLER_40_245
*1231 FILLER_40_251
*1232 FILLER_40_253
*1233 FILLER_40_265
*1234 FILLER_40_27
*1235 FILLER_40_277
*1236 FILLER_40_289
*1237 FILLER_40_29
*1238 FILLER_40_297
*1239 FILLER_40_3
*1240 FILLER_40_41
*1241 FILLER_40_53
*1242 FILLER_40_65
*1243 FILLER_40_77
*1244 FILLER_40_83
*1245 FILLER_40_85
*1246 FILLER_40_97
*1247 FILLER_41_111
*1248 FILLER_41_113
*1249 FILLER_41_125
*1250 FILLER_41_137
*1251 FILLER_41_149
*1252 FILLER_41_15
*1253 FILLER_41_161
*1254 FILLER_41_167
*1255 FILLER_41_169
*1256 FILLER_41_181
*1257 FILLER_41_193
*1258 FILLER_41_205
*1259 FILLER_41_217
*1260 FILLER_41_223
*1261 FILLER_41_225
*1262 FILLER_41_237
*1263 FILLER_41_249
*1264 FILLER_41_261
*1265 FILLER_41_27
*1266 FILLER_41_273
*1267 FILLER_41_279
*1268 FILLER_41_281
*1269 FILLER_41_293
*1270 FILLER_41_3
*1271 FILLER_41_35
*1272 FILLER_41_41
*1273 FILLER_41_53
*1274 FILLER_41_57
*1275 FILLER_41_69
*1276 FILLER_41_81
*1277 FILLER_41_89
*1278 FILLER_41_99
*1279 FILLER_42_114
*1280 FILLER_42_126
*1281 FILLER_42_138
*1282 FILLER_42_141
*1283 FILLER_42_15
*1284 FILLER_42_153
*1285 FILLER_42_165
*1286 FILLER_42_177
*1287 FILLER_42_189
*1288 FILLER_42_195
*1289 FILLER_42_197
*1290 FILLER_42_209
*1291 FILLER_42_221
*1292 FILLER_42_233
*1293 FILLER_42_245
*1294 FILLER_42_251
*1295 FILLER_42_253
*1296 FILLER_42_265
*1297 FILLER_42_27
*1298 FILLER_42_277
*1299 FILLER_42_289
*1300 FILLER_42_29
*1301 FILLER_42_297
*1302 FILLER_42_3
*1303 FILLER_42_38
*1304 FILLER_42_50
*1305 FILLER_42_62
*1306 FILLER_42_74
*1307 FILLER_42_82
*1308 FILLER_42_85
*1309 FILLER_42_97
*1310 FILLER_43_105
*1311 FILLER_43_111
*1312 FILLER_43_113
*1313 FILLER_43_125
*1314 FILLER_43_137
*1315 FILLER_43_149
*1316 FILLER_43_15
*1317 FILLER_43_161
*1318 FILLER_43_167
*1319 FILLER_43_169
*1320 FILLER_43_181
*1321 FILLER_43_193
*1322 FILLER_43_205
*1323 FILLER_43_217
*1324 FILLER_43_223
*1325 FILLER_43_225
*1326 FILLER_43_237
*1327 FILLER_43_249
*1328 FILLER_43_261
*1329 FILLER_43_27
*1330 FILLER_43_273
*1331 FILLER_43_279
*1332 FILLER_43_281
*1333 FILLER_43_293
*1334 FILLER_43_3
*1335 FILLER_43_39
*1336 FILLER_43_51
*1337 FILLER_43_55
*1338 FILLER_43_57
*1339 FILLER_43_69
*1340 FILLER_43_81
*1341 FILLER_43_93
*1342 FILLER_44_109
*1343 FILLER_44_121
*1344 FILLER_44_133
*1345 FILLER_44_139
*1346 FILLER_44_141
*1347 FILLER_44_153
*1348 FILLER_44_165
*1349 FILLER_44_177
*1350 FILLER_44_189
*1351 FILLER_44_195
*1352 FILLER_44_197
*1353 FILLER_44_20
*1354 FILLER_44_209
*1355 FILLER_44_221
*1356 FILLER_44_233
*1357 FILLER_44_245
*1358 FILLER_44_251
*1359 FILLER_44_253
*1360 FILLER_44_265
*1361 FILLER_44_277
*1362 FILLER_44_289
*1363 FILLER_44_29
*1364 FILLER_44_297
*1365 FILLER_44_3
*1366 FILLER_44_41
*1367 FILLER_44_53
*1368 FILLER_44_65
*1369 FILLER_44_77
*1370 FILLER_44_8
*1371 FILLER_44_83
*1372 FILLER_44_85
*1373 FILLER_44_97
*1374 FILLER_45_111
*1375 FILLER_45_113
*1376 FILLER_45_125
*1377 FILLER_45_137
*1378 FILLER_45_149
*1379 FILLER_45_16
*1380 FILLER_45_161
*1381 FILLER_45_167
*1382 FILLER_45_169
*1383 FILLER_45_181
*1384 FILLER_45_193
*1385 FILLER_45_205
*1386 FILLER_45_217
*1387 FILLER_45_223
*1388 FILLER_45_225
*1389 FILLER_45_237
*1390 FILLER_45_24
*1391 FILLER_45_249
*1392 FILLER_45_261
*1393 FILLER_45_273
*1394 FILLER_45_279
*1395 FILLER_45_281
*1396 FILLER_45_293
*1397 FILLER_45_3
*1398 FILLER_45_36
*1399 FILLER_45_48
*1400 FILLER_45_52
*1401 FILLER_45_57
*1402 FILLER_45_69
*1403 FILLER_45_75
*1404 FILLER_45_87
*1405 FILLER_45_99
*1406 FILLER_46_109
*1407 FILLER_46_121
*1408 FILLER_46_133
*1409 FILLER_46_139
*1410 FILLER_46_141
*1411 FILLER_46_15
*1412 FILLER_46_153
*1413 FILLER_46_165
*1414 FILLER_46_177
*1415 FILLER_46_189
*1416 FILLER_46_195
*1417 FILLER_46_197
*1418 FILLER_46_209
*1419 FILLER_46_221
*1420 FILLER_46_233
*1421 FILLER_46_245
*1422 FILLER_46_251
*1423 FILLER_46_253
*1424 FILLER_46_265
*1425 FILLER_46_27
*1426 FILLER_46_277
*1427 FILLER_46_289
*1428 FILLER_46_29
*1429 FILLER_46_297
*1430 FILLER_46_3
*1431 FILLER_46_41
*1432 FILLER_46_52
*1433 FILLER_46_64
*1434 FILLER_46_76
*1435 FILLER_46_85
*1436 FILLER_46_97
*1437 FILLER_47_105
*1438 FILLER_47_111
*1439 FILLER_47_113
*1440 FILLER_47_125
*1441 FILLER_47_137
*1442 FILLER_47_149
*1443 FILLER_47_15
*1444 FILLER_47_161
*1445 FILLER_47_167
*1446 FILLER_47_169
*1447 FILLER_47_181
*1448 FILLER_47_193
*1449 FILLER_47_205
*1450 FILLER_47_217
*1451 FILLER_47_223
*1452 FILLER_47_225
*1453 FILLER_47_237
*1454 FILLER_47_249
*1455 FILLER_47_261
*1456 FILLER_47_27
*1457 FILLER_47_273
*1458 FILLER_47_279
*1459 FILLER_47_281
*1460 FILLER_47_293
*1461 FILLER_47_3
*1462 FILLER_47_39
*1463 FILLER_47_51
*1464 FILLER_47_55
*1465 FILLER_47_57
*1466 FILLER_47_69
*1467 FILLER_47_81
*1468 FILLER_47_93
*1469 FILLER_48_109
*1470 FILLER_48_121
*1471 FILLER_48_133
*1472 FILLER_48_139
*1473 FILLER_48_141
*1474 FILLER_48_15
*1475 FILLER_48_153
*1476 FILLER_48_165
*1477 FILLER_48_177
*1478 FILLER_48_189
*1479 FILLER_48_195
*1480 FILLER_48_197
*1481 FILLER_48_209
*1482 FILLER_48_221
*1483 FILLER_48_233
*1484 FILLER_48_245
*1485 FILLER_48_251
*1486 FILLER_48_253
*1487 FILLER_48_265
*1488 FILLER_48_27
*1489 FILLER_48_277
*1490 FILLER_48_289
*1491 FILLER_48_29
*1492 FILLER_48_297
*1493 FILLER_48_3
*1494 FILLER_48_41
*1495 FILLER_48_49
*1496 FILLER_48_58
*1497 FILLER_48_70
*1498 FILLER_48_82
*1499 FILLER_48_85
*1500 FILLER_48_97
*1501 FILLER_49_105
*1502 FILLER_49_111
*1503 FILLER_49_113
*1504 FILLER_49_122
*1505 FILLER_49_134
*1506 FILLER_49_146
*1507 FILLER_49_15
*1508 FILLER_49_158
*1509 FILLER_49_166
*1510 FILLER_49_169
*1511 FILLER_49_181
*1512 FILLER_49_193
*1513 FILLER_49_205
*1514 FILLER_49_217
*1515 FILLER_49_223
*1516 FILLER_49_225
*1517 FILLER_49_237
*1518 FILLER_49_249
*1519 FILLER_49_261
*1520 FILLER_49_27
*1521 FILLER_49_273
*1522 FILLER_49_279
*1523 FILLER_49_281
*1524 FILLER_49_293
*1525 FILLER_49_3
*1526 FILLER_49_39
*1527 FILLER_49_51
*1528 FILLER_49_55
*1529 FILLER_49_57
*1530 FILLER_49_69
*1531 FILLER_49_81
*1532 FILLER_49_93
*1533 FILLER_4_107
*1534 FILLER_4_119
*1535 FILLER_4_131
*1536 FILLER_4_139
*1537 FILLER_4_141
*1538 FILLER_4_153
*1539 FILLER_4_165
*1540 FILLER_4_177
*1541 FILLER_4_189
*1542 FILLER_4_195
*1543 FILLER_4_197
*1544 FILLER_4_209
*1545 FILLER_4_221
*1546 FILLER_4_233
*1547 FILLER_4_245
*1548 FILLER_4_251
*1549 FILLER_4_253
*1550 FILLER_4_26
*1551 FILLER_4_265
*1552 FILLER_4_277
*1553 FILLER_4_289
*1554 FILLER_4_29
*1555 FILLER_4_297
*1556 FILLER_4_3
*1557 FILLER_4_47
*1558 FILLER_4_59
*1559 FILLER_4_65
*1560 FILLER_4_73
*1561 FILLER_4_81
*1562 FILLER_4_85
*1563 FILLER_4_9
*1564 FILLER_4_96
*1565 FILLER_50_109
*1566 FILLER_50_121
*1567 FILLER_50_133
*1568 FILLER_50_139
*1569 FILLER_50_141
*1570 FILLER_50_15
*1571 FILLER_50_153
*1572 FILLER_50_165
*1573 FILLER_50_177
*1574 FILLER_50_189
*1575 FILLER_50_195
*1576 FILLER_50_197
*1577 FILLER_50_209
*1578 FILLER_50_221
*1579 FILLER_50_233
*1580 FILLER_50_245
*1581 FILLER_50_251
*1582 FILLER_50_253
*1583 FILLER_50_265
*1584 FILLER_50_27
*1585 FILLER_50_277
*1586 FILLER_50_289
*1587 FILLER_50_29
*1588 FILLER_50_297
*1589 FILLER_50_3
*1590 FILLER_50_41
*1591 FILLER_50_53
*1592 FILLER_50_61
*1593 FILLER_50_70
*1594 FILLER_50_82
*1595 FILLER_50_85
*1596 FILLER_50_97
*1597 FILLER_51_105
*1598 FILLER_51_11
*1599 FILLER_51_111
*1600 FILLER_51_113