*SPEF "ieee 1481-1999"
*DESIGN "user_module_361684719151591425"
*DATE "11:11:11 Fri 11 11, 1111"
*VENDOR "OpenRCX"
*PROGRAM "Parallel Extraction"
*VERSION "1.0"
*DESIGN_FLOW "NAME_SCOPE LOCAL" "PIN_CAP NONE"
*DIVIDER /
*DELIMITER :
*BUS_DELIMITER []
*T_UNIT 1 NS
*C_UNIT 1 PF
*R_UNIT 1 OHM
*L_UNIT 1 HENRY

*NAME_MAP
*1 io_in[0]
*2 io_in[1]
*3 io_in[2]
*4 io_in[3]
*5 io_in[4]
*6 io_in[5]
*7 io_in[6]
*8 io_in[7]
*9 io_out[0]
*10 io_out[1]
*11 io_out[2]
*12 io_out[3]
*13 io_out[4]
*14 io_out[5]
*15 io_out[6]
*16 io_out[7]
*19 _000_
*20 _001_
*21 _002_
*22 _003_
*23 _004_
*24 _005_
*25 _006_
*26 _007_
*27 _008_
*28 _009_
*29 _010_
*30 _011_
*31 _012_
*32 _013_
*33 _014_
*34 _015_
*35 _016_
*36 _017_
*37 _018_
*38 _019_
*39 _020_
*40 _021_
*41 _022_
*42 _023_
*43 _025_
*44 _026_
*45 _027_
*46 _028_
*47 _029_
*48 _030_
*49 _031_
*50 _032_
*51 _033_
*52 _034_
*53 _035_
*54 _036_
*55 _037_
*56 _038_
*57 _039_
*58 _040_
*59 _041_
*60 _042_
*61 _043_
*62 _044_
*63 _045_
*64 _046_
*65 _047_
*66 _048_
*67 _049_
*68 _050_
*69 _051_
*70 and1\.out
*71 clknet_0__007_
*72 clknet_0__021_
*73 clknet_0__032_
*74 clknet_0__043_
*75 clknet_0_io_in[0]
*76 clknet_1_0__leaf__007_
*77 clknet_1_0__leaf__021_
*78 clknet_1_0__leaf__032_
*79 clknet_1_0__leaf__043_
*80 clknet_1_0__leaf_io_in[0]
*81 clknet_1_1__leaf__007_
*82 clknet_1_1__leaf__021_
*83 clknet_1_1__leaf__032_
*84 clknet_1_1__leaf__043_
*85 clknet_1_1__leaf_io_in[0]
*86 net1
*87 net2
*88 net3
*89 net4
*90 net5
*91 net6
*92 or16\.out
*93 or24\.out
*94 or33\.out
*95 or38\.out
*96 or46\.out
*97 or54\.out
*98 or9\.out
*99 FILLER_0_109
*100 FILLER_0_113
*101 FILLER_0_125
*102 FILLER_0_137
*103 FILLER_0_141
*104 FILLER_0_15
*105 FILLER_0_153
*106 FILLER_0_165
*107 FILLER_0_169
*108 FILLER_0_181
*109 FILLER_0_193
*110 FILLER_0_197
*111 FILLER_0_209
*112 FILLER_0_221
*113 FILLER_0_225
*114 FILLER_0_237
*115 FILLER_0_249
*116 FILLER_0_253
*117 FILLER_0_265
*118 FILLER_0_27
*119 FILLER_0_277
*120 FILLER_0_281
*121 FILLER_0_29
*122 FILLER_0_293
*123 FILLER_0_3
*124 FILLER_0_41
*125 FILLER_0_53
*126 FILLER_0_57
*127 FILLER_0_69
*128 FILLER_0_81
*129 FILLER_0_85
*130 FILLER_0_97
*131 FILLER_10_109
*132 FILLER_10_121
*133 FILLER_10_133
*134 FILLER_10_139
*135 FILLER_10_141
*136 FILLER_10_15
*137 FILLER_10_153
*138 FILLER_10_165
*139 FILLER_10_177
*140 FILLER_10_189
*141 FILLER_10_195
*142 FILLER_10_197
*143 FILLER_10_209
*144 FILLER_10_221
*145 FILLER_10_233
*146 FILLER_10_245
*147 FILLER_10_251
*148 FILLER_10_253
*149 FILLER_10_265
*150 FILLER_10_27
*151 FILLER_10_277
*152 FILLER_10_289
*153 FILLER_10_29
*154 FILLER_10_297
*155 FILLER_10_3
*156 FILLER_10_41
*157 FILLER_10_53
*158 FILLER_10_65
*159 FILLER_10_77
*160 FILLER_10_83
*161 FILLER_10_85
*162 FILLER_10_97
*163 FILLER_11_105
*164 FILLER_11_111
*165 FILLER_11_113
*166 FILLER_11_125
*167 FILLER_11_137
*168 FILLER_11_149
*169 FILLER_11_15
*170 FILLER_11_161
*171 FILLER_11_167
*172 FILLER_11_169
*173 FILLER_11_181
*174 FILLER_11_193
*175 FILLER_11_205
*176 FILLER_11_217
*177 FILLER_11_223
*178 FILLER_11_225
*179 FILLER_11_237
*180 FILLER_11_249
*181 FILLER_11_261
*182 FILLER_11_27
*183 FILLER_11_273
*184 FILLER_11_279
*185 FILLER_11_281
*186 FILLER_11_293
*187 FILLER_11_3
*188 FILLER_11_39
*189 FILLER_11_51
*190 FILLER_11_55
*191 FILLER_11_57
*192 FILLER_11_69
*193 FILLER_11_81
*194 FILLER_11_93
*195 FILLER_12_109
*196 FILLER_12_121
*197 FILLER_12_133
*198 FILLER_12_139
*199 FILLER_12_141
*200 FILLER_12_153
*201 FILLER_12_165
*202 FILLER_12_177
*203 FILLER_12_189
*204 FILLER_12_195
*205 FILLER_12_197
*206 FILLER_12_20
*207 FILLER_12_209
*208 FILLER_12_221
*209 FILLER_12_233
*210 FILLER_12_245
*211 FILLER_12_251
*212 FILLER_12_253
*213 FILLER_12_265
*214 FILLER_12_277
*215 FILLER_12_289
*216 FILLER_12_29
*217 FILLER_12_297
*218 FILLER_12_3
*219 FILLER_12_41
*220 FILLER_12_53
*221 FILLER_12_65
*222 FILLER_12_77
*223 FILLER_12_8
*224 FILLER_12_83
*225 FILLER_12_85
*226 FILLER_12_97
*227 FILLER_13_105
*228 FILLER_13_111
*229 FILLER_13_113
*230 FILLER_13_125
*231 FILLER_13_137
*232 FILLER_13_149
*233 FILLER_13_15
*234 FILLER_13_161
*235 FILLER_13_167
*236 FILLER_13_169
*237 FILLER_13_181
*238 FILLER_13_193
*239 FILLER_13_205
*240 FILLER_13_217
*241 FILLER_13_223
*242 FILLER_13_225
*243 FILLER_13_237
*244 FILLER_13_249
*245 FILLER_13_261
*246 FILLER_13_27
*247 FILLER_13_273
*248 FILLER_13_279
*249 FILLER_13_281
*250 FILLER_13_293
*251 FILLER_13_3
*252 FILLER_13_39
*253 FILLER_13_51
*254 FILLER_13_55
*255 FILLER_13_57
*256 FILLER_13_69
*257 FILLER_13_81
*258 FILLER_13_93
*259 FILLER_14_109
*260 FILLER_14_121
*261 FILLER_14_133
*262 FILLER_14_139
*263 FILLER_14_141
*264 FILLER_14_15
*265 FILLER_14_153
*266 FILLER_14_165
*267 FILLER_14_177
*268 FILLER_14_189
*269 FILLER_14_195
*270 FILLER_14_197
*271 FILLER_14_209
*272 FILLER_14_221
*273 FILLER_14_233
*274 FILLER_14_245
*275 FILLER_14_251
*276 FILLER_14_253
*277 FILLER_14_265
*278 FILLER_14_27
*279 FILLER_14_277
*280 FILLER_14_289
*281 FILLER_14_29
*282 FILLER_14_297
*283 FILLER_14_3
*284 FILLER_14_41
*285 FILLER_14_53
*286 FILLER_14_65
*287 FILLER_14_77
*288 FILLER_14_83
*289 FILLER_14_85
*290 FILLER_14_97
*291 FILLER_15_105
*292 FILLER_15_111
*293 FILLER_15_113
*294 FILLER_15_125
*295 FILLER_15_137
*296 FILLER_15_149
*297 FILLER_15_15
*298 FILLER_15_161
*299 FILLER_15_167
*300 FILLER_15_169
*301 FILLER_15_181
*302 FILLER_15_193
*303 FILLER_15_205
*304 FILLER_15_217
*305 FILLER_15_223
*306 FILLER_15_225
*307 FILLER_15_237
*308 FILLER_15_249
*309 FILLER_15_261
*310 FILLER_15_27
*311 FILLER_15_273
*312 FILLER_15_279
*313 FILLER_15_281
*314 FILLER_15_293
*315 FILLER_15_3
*316 FILLER_15_39
*317 FILLER_15_51
*318 FILLER_15_55
*319 FILLER_15_57
*320 FILLER_15_69
*321 FILLER_15_81
*322 FILLER_15_93
*323 FILLER_16_109
*324 FILLER_16_121
*325 FILLER_16_133
*326 FILLER_16_139
*327 FILLER_16_141
*328 FILLER_16_15
*329 FILLER_16_153
*330 FILLER_16_165
*331 FILLER_16_177
*332 FILLER_16_189
*333 FILLER_16_195
*334 FILLER_16_197
*335 FILLER_16_209
*336 FILLER_16_221
*337 FILLER_16_233
*338 FILLER_16_245
*339 FILLER_16_251
*340 FILLER_16_253
*341 FILLER_16_265
*342 FILLER_16_27
*343 FILLER_16_277
*344 FILLER_16_289
*345 FILLER_16_29
*346 FILLER_16_297
*347 FILLER_16_3
*348 FILLER_16_41
*349 FILLER_16_53
*350 FILLER_16_65
*351 FILLER_16_77
*352 FILLER_16_83
*353 FILLER_16_85
*354 FILLER_16_97
*355 FILLER_17_105
*356 FILLER_17_111
*357 FILLER_17_113
*358 FILLER_17_125
*359 FILLER_17_137
*360 FILLER_17_149
*361 FILLER_17_15
*362 FILLER_17_161
*363 FILLER_17_167
*364 FILLER_17_169
*365 FILLER_17_181
*366 FILLER_17_193
*367 FILLER_17_205
*368 FILLER_17_217
*369 FILLER_17_223
*370 FILLER_17_225
*371 FILLER_17_237
*372 FILLER_17_249
*373 FILLER_17_261
*374 FILLER_17_27
*375 FILLER_17_273
*376 FILLER_17_279
*377 FILLER_17_281
*378 FILLER_17_293
*379 FILLER_17_3
*380 FILLER_17_39
*381 FILLER_17_51
*382 FILLER_17_55
*383 FILLER_17_57
*384 FILLER_17_69
*385 FILLER_17_81
*386 FILLER_17_93
*387 FILLER_18_109
*388 FILLER_18_121
*389 FILLER_18_133
*390 FILLER_18_139
*391 FILLER_18_141
*392 FILLER_18_15
*393 FILLER_18_153
*394 FILLER_18_165
*395 FILLER_18_177
*396 FILLER_18_189
*397 FILLER_18_195
*398 FILLER_18_197
*399 FILLER_18_209
*400 FILLER_18_221
*401 FILLER_18_233
*402 FILLER_18_245
*403 FILLER_18_251
*404 FILLER_18_253
*405 FILLER_18_265
*406 FILLER_18_27
*407 FILLER_18_277
*408 FILLER_18_289
*409 FILLER_18_29
*410 FILLER_18_297
*411 FILLER_18_3
*412 FILLER_18_41
*413 FILLER_18_53
*414 FILLER_18_65
*415 FILLER_18_77
*416 FILLER_18_83
*417 FILLER_18_85
*418 FILLER_18_97
*419 FILLER_19_105
*420 FILLER_19_111
*421 FILLER_19_113
*422 FILLER_19_125
*423 FILLER_19_137
*424 FILLER_19_149
*425 FILLER_19_15
*426 FILLER_19_161
*427 FILLER_19_167
*428 FILLER_19_169
*429 FILLER_19_181
*430 FILLER_19_193
*431 FILLER_19_205
*432 FILLER_19_217
*433 FILLER_19_223
*434 FILLER_19_225
*435 FILLER_19_237
*436 FILLER_19_249
*437 FILLER_19_261
*438 FILLER_19_27
*439 FILLER_19_273
*440 FILLER_19_279
*441 FILLER_19_281
*442 FILLER_19_293
*443 FILLER_19_3
*444 FILLER_19_39
*445 FILLER_19_51
*446 FILLER_19_55
*447 FILLER_19_57
*448 FILLER_19_69
*449 FILLER_19_81
*450 FILLER_19_93
*451 FILLER_1_105
*452 FILLER_1_111
*453 FILLER_1_113
*454 FILLER_1_125
*455 FILLER_1_137
*456 FILLER_1_149
*457 FILLER_1_15
*458 FILLER_1_161
*459 FILLER_1_167
*460 FILLER_1_169
*461 FILLER_1_181
*462 FILLER_1_193
*463 FILLER_1_205
*464 FILLER_1_217
*465 FILLER_1_223
*466 FILLER_1_225
*467 FILLER_1_237
*468 FILLER_1_249
*469 FILLER_1_261
*470 FILLER_1_27
*471 FILLER_1_273
*472 FILLER_1_279
*473 FILLER_1_281
*474 FILLER_1_293
*475 FILLER_1_3
*476 FILLER_1_39
*477 FILLER_1_51
*478 FILLER_1_55
*479 FILLER_1_57
*480 FILLER_1_69
*481 FILLER_1_81
*482 FILLER_1_93
*483 FILLER_20_109
*484 FILLER_20_121
*485 FILLER_20_133
*486 FILLER_20_139
*487 FILLER_20_141
*488 FILLER_20_15
*489 FILLER_20_153
*490 FILLER_20_165
*491 FILLER_20_177
*492 FILLER_20_189
*493 FILLER_20_195
*494 FILLER_20_197
*495 FILLER_20_209
*496 FILLER_20_221
*497 FILLER_20_233
*498 FILLER_20_245
*499 FILLER_20_251
*500 FILLER_20_253
*501 FILLER_20_265
*502 FILLER_20_27
*503 FILLER_20_277
*504 FILLER_20_289
*505 FILLER_20_29
*506 FILLER_20_297
*507 FILLER_20_3
*508 FILLER_20_41
*509 FILLER_20_53
*510 FILLER_20_65
*511 FILLER_20_77
*512 FILLER_20_83
*513 FILLER_20_85
*514 FILLER_20_97
*515 FILLER_21_105
*516 FILLER_21_111
*517 FILLER_21_113
*518 FILLER_21_125
*519 FILLER_21_137
*520 FILLER_21_149
*521 FILLER_21_15
*522 FILLER_21_161
*523 FILLER_21_167
*524 FILLER_21_169
*525 FILLER_21_181
*526 FILLER_21_193
*527 FILLER_21_205
*528 FILLER_21_217
*529 FILLER_21_223
*530 FILLER_21_225
*531 FILLER_21_237
*532 FILLER_21_249
*533 FILLER_21_261
*534 FILLER_21_27
*535 FILLER_21_273
*536 FILLER_21_279
*537 FILLER_21_281
*538 FILLER_21_293
*539 FILLER_21_3
*540 FILLER_21_39
*541 FILLER_21_51
*542 FILLER_21_55
*543 FILLER_21_57
*544 FILLER_21_69
*545 FILLER_21_81
*546 FILLER_21_93
*547 FILLER_22_109
*548 FILLER_22_121
*549 FILLER_22_133
*550 FILLER_22_139
*551 FILLER_22_141
*552 FILLER_22_15
*553 FILLER_22_153
*554 FILLER_22_165
*555 FILLER_22_177
*556 FILLER_22_189
*557 FILLER_22_195
*558 FILLER_22_197
*559 FILLER_22_209
*560 FILLER_22_221
*561 FILLER_22_233
*562 FILLER_22_245
*563 FILLER_22_251
*564 FILLER_22_253
*565 FILLER_22_265
*566 FILLER_22_27
*567 FILLER_22_277
*568 FILLER_22_289
*569 FILLER_22_29
*570 FILLER_22_297
*571 FILLER_22_3
*572 FILLER_22_34
*573 FILLER_22_46
*574 FILLER_22_58
*575 FILLER_22_70
*576 FILLER_22_82
*577 FILLER_22_85
*578 FILLER_22_97
*579 FILLER_23_105
*580 FILLER_23_111
*581 FILLER_23_113
*582 FILLER_23_125
*583 FILLER_23_137
*584 FILLER_23_149
*585 FILLER_23_161
*586 FILLER_23_167
*587 FILLER_23_169
*588 FILLER_23_181
*589 FILLER_23_193
*590 FILLER_23_205
*591 FILLER_23_21
*592 FILLER_23_217
*593 FILLER_23_223
*594 FILLER_23_225
*595 FILLER_23_237
*596 FILLER_23_249
*597 FILLER_23_261
*598 FILLER_23_273
*599 FILLER_23_279
*600 FILLER_23_281
*601 FILLER_23_293
*602 FILLER_23_3
*603 FILLER_23_33
*604 FILLER_23_45
*605 FILLER_23_53
*606 FILLER_23_57
*607 FILLER_23_69
*608 FILLER_23_81
*609 FILLER_23_9
*610 FILLER_23_93
*611 FILLER_24_109
*612 FILLER_24_12
*613 FILLER_24_121
*614 FILLER_24_133
*615 FILLER_24_139
*616 FILLER_24_141
*617 FILLER_24_153
*618 FILLER_24_165
*619 FILLER_24_177
*620 FILLER_24_189
*621 FILLER_24_195
*622 FILLER_24_197
*623 FILLER_24_209
*624 FILLER_24_221
*625 FILLER_24_233
*626 FILLER_24_24
*627 FILLER_24_245
*628 FILLER_24_251
*629 FILLER_24_253
*630 FILLER_24_265
*631 FILLER_24_277
*632 FILLER_24_289
*633 FILLER_24_29
*634 FILLER_24_297
*635 FILLER_24_3
*636 FILLER_24_41
*637 FILLER_24_53
*638 FILLER_24_65
*639 FILLER_24_77
*640 FILLER_24_83
*641 FILLER_24_85
*642 FILLER_24_97
*643 FILLER_25_105
*644 FILLER_25_11
*645 FILLER_25_111
*646 FILLER_25_113
*647 FILLER_25_125
*648 FILLER_25_137
*649 FILLER_25_149
*650 FILLER_25_161
*651 FILLER_25_167
*652 FILLER_25_169
*653 FILLER_25_181
*654 FILLER_25_193
*655 FILLER_25_205
*656 FILLER_25_217
*657 FILLER_25_223
*658 FILLER_25_225
*659 FILLER_25_23
*660 FILLER_25_237
*661 FILLER_25_249
*662 FILLER_25_261
*663 FILLER_25_273
*664 FILLER_25_279
*665 FILLER_25_281
*666 FILLER_25_29
*667 FILLER_25_293
*668 FILLER_25_3
*669 FILLER_25_37
*670 FILLER_25_49
*671 FILLER_25_55
*672 FILLER_25_57
*673 FILLER_25_69
*674 FILLER_25_81
*675 FILLER_25_93
*676 FILLER_26_109
*677 FILLER_26_12
*678 FILLER_26_121
*679 FILLER_26_133
*680 FILLER_26_139
*681 FILLER_26_141
*682 FILLER_26_153
*683 FILLER_26_165
*684 FILLER_26_177
*685 FILLER_26_189
*686 FILLER_26_195
*687 FILLER_26_197
*688 FILLER_26_20
*689 FILLER_26_209
*690 FILLER_26_221
*691 FILLER_26_233
*692 FILLER_26_245
*693 FILLER_26_251
*694 FILLER_26_253
*695 FILLER_26_265
*696 FILLER_26_277
*697 FILLER_26_289
*698 FILLER_26_29
*699 FILLER_26_297
*700 FILLER_26_3
*701 FILLER_26_38
*702 FILLER_26_50
*703 FILLER_26_62
*704 FILLER_26_74
*705 FILLER_26_82
*706 FILLER_26_85
*707 FILLER_26_97
*708 FILLER_27_105
*709 FILLER_27_111
*710 FILLER_27_113
*711 FILLER_27_125
*712 FILLER_27_137
*713 FILLER_27_149
*714 FILLER_27_15
*715 FILLER_27_161
*716 FILLER_27_167
*717 FILLER_27_169
*718 FILLER_27_181
*719 FILLER_27_193
*720 FILLER_27_205
*721 FILLER_27_217
*722 FILLER_27_223
*723 FILLER_27_225
*724 FILLER_27_23
*725 FILLER_27_237
*726 FILLER_27_249
*727 FILLER_27_261
*728 FILLER_27_273
*729 FILLER_27_279
*730 FILLER_27_281
*731 FILLER_27_293
*732 FILLER_27_3
*733 FILLER_27_31
*734 FILLER_27_38
*735 FILLER_27_50
*736 FILLER_27_57
*737 FILLER_27_69
*738 FILLER_27_81
*739 FILLER_27_93
*740 FILLER_28_109
*741 FILLER_28_121
*742 FILLER_28_13
*743 FILLER_28_133
*744 FILLER_28_139
*745 FILLER_28_141
*746 FILLER_28_153
*747 FILLER_28_165
*748 FILLER_28_177
*749 FILLER_28_189
*750 FILLER_28_195
*751 FILLER_28_197
*752 FILLER_28_20
*753 FILLER_28_209
*754 FILLER_28_221
*755 FILLER_28_233
*756 FILLER_28_245
*757 FILLER_28_251
*758 FILLER_28_253
*759 FILLER_28_265
*760 FILLER_28_277
*761 FILLER_28_289
*762 FILLER_28_29
*763 FILLER_28_297
*764 FILLER_28_3
*765 FILLER_28_35
*766 FILLER_28_40
*767 FILLER_28_52
*768 FILLER_28_64
*769 FILLER_28_76
*770 FILLER_28_85
*771 FILLER_28_9
*772 FILLER_28_97
*773 FILLER_29_105
*774 FILLER_29_111
*775 FILLER_29_113
*776 FILLER_29_125
*777 FILLER_29_137
*778 FILLER_29_149
*779 FILLER_29_161
*780 FILLER_29_167
*781 FILLER_29_169
*782 FILLER_29_18
*783 FILLER_29_181
*784 FILLER_29_193
*785 FILLER_29_205
*786 FILLER_29_217
*787 FILLER_29_223
*788 FILLER_29_225
*789 FILLER_29_237
*790 FILLER_29_249
*791 FILLER_29_261
*792 FILLER_29_273
*793 FILLER_29_279
*794 FILLER_29_281
*795 FILLER_29_29
*796 FILLER_29_293
*797 FILLER_29_3
*798 FILLER_29_39
*799 FILLER_29_46
*800 FILLER_29_54
*801 FILLER_29_57
*802 FILLER_29_69
*803 FILLER_29_81
*804 FILLER_29_93
*805 FILLER_2_109
*806 FILLER_2_121
*807 FILLER_2_133
*808 FILLER_2_139
*809 FILLER_2_141
*810 FILLER_2_15
*811 FILLER_2_153
*812 FILLER_2_165
*813 FILLER_2_177
*814 FILLER_2_189
*815 FILLER_2_195
*816 FILLER_2_197
*817 FILLER_2_209
*818 FILLER_2_221
*819 FILLER_2_233
*820 FILLER_2_245
*821 FILLER_2_251
*822 FILLER_2_253
*823 FILLER_2_265
*824 FILLER_2_27
*825 FILLER_2_277
*826 FILLER_2_289
*827 FILLER_2_29
*828 FILLER_2_297
*829 FILLER_2_3
*830 FILLER_2_41
*831 FILLER_2_53
*832 FILLER_2_65
*833 FILLER_2_77
*834 FILLER_2_83
*835 FILLER_2_85
*836 FILLER_2_97
*837 FILLER_30_109
*838 FILLER_30_121
*839 FILLER_30_133
*840 FILLER_30_139
*841 FILLER_30_141
*842 FILLER_30_153
*843 FILLER_30_165
*844 FILLER_30_177
*845 FILLER_30_189
*846 FILLER_30_195
*847 FILLER_30_197
*848 FILLER_30_209
*849 FILLER_30_221
*850 FILLER_30_233
*851 FILLER_30_245
*852 FILLER_30_25
*853 FILLER_30_251
*854 FILLER_30_253
*855 FILLER_30_265
*856 FILLER_30_277
*857 FILLER_30_289
*858 FILLER_30_29
*859 FILLER_30_297
*860 FILLER_30_3
*861 FILLER_30_37
*862 FILLER_30_44
*863 FILLER_30_51
*864 FILLER_30_63
*865 FILLER_30_75
*866 FILLER_30_83
*867 FILLER_30_85
*868 FILLER_30_97
*869 FILLER_31_110
*870 FILLER_31_113
*871 FILLER_31_125
*872 FILLER_31_137
*873 FILLER_31_149
*874 FILLER_31_161
*875 FILLER_31_167
*876 FILLER_31_169
*877 FILLER_31_181
*878 FILLER_31_193
*879 FILLER_31_205
*880 FILLER_31_217
*881 FILLER_31_223
*882 FILLER_31_225
*883 FILLER_31_237
*884 FILLER_31_249
*885 FILLER_31_25
*886 FILLER_31_261
*887 FILLER_31_273
*888 FILLER_31_279
*889 FILLER_31_281
*890 FILLER_31_293
*891 FILLER_31_3
*892 FILLER_31_36
*893 FILLER_31_44
*894 FILLER_31_51
*895 FILLER_31_55
*896 FILLER_31_57
*897 FILLER_31_62
*898 FILLER_31_74
*899 FILLER_31_86
*900 FILLER_31_98
*901 FILLER_32_109
*902 FILLER_32_121
*903 FILLER_32_133
*904 FILLER_32_139
*905 FILLER_32_141
*906 FILLER_32_153
*907 FILLER_32_165
*908 FILLER_32_177
*909 FILLER_32_18
*910 FILLER_32_189
*911 FILLER_32_195
*912 FILLER_32_197
*913 FILLER_32_209
*914 FILLER_32_221
*915 FILLER_32_233
*916 FILLER_32_245
*917 FILLER_32_251
*918 FILLER_32_253
*919 FILLER_32_26
*920 FILLER_32_265
*921 FILLER_32_277
*922 FILLER_32_289
*923 FILLER_32_29
*924 FILLER_32_297
*925 FILLER_32_3
*926 FILLER_32_37
*927 FILLER_32_45
*928 FILLER_32_56
*929 FILLER_32_68
*930 FILLER_32_80
*931 FILLER_32_85
*932 FILLER_32_97
*933 FILLER_33_105
*934 FILLER_33_11
*935 FILLER_33_111
*936 FILLER_33_113
*937 FILLER_33_125
*938 FILLER_33_137
*939 FILLER_33_149
*940 FILLER_33_161
*941 FILLER_33_167
*942 FILLER_33_169
*943 FILLER_33_181
*944 FILLER_33_193
*945 FILLER_33_205
*946 FILLER_33_217
*947 FILLER_33_223
*948 FILLER_33_225
*949 FILLER_33_237
*950 FILLER_33_24
*951 FILLER_33_249
*952 FILLER_33_261
*953 FILLER_33_273
*954 FILLER_33_279
*955 FILLER_33_281
*956 FILLER_33_293
*957 FILLER_33_3
*958 FILLER_33_30
*959 FILLER_33_36
*960 FILLER_33_45
*961 FILLER_33_53
*962 FILLER_33_57
*963 FILLER_33_69
*964 FILLER_33_81
*965 FILLER_33_93
*966 FILLER_34_109
*967 FILLER_34_121
*968 FILLER_34_133
*969 FILLER_34_139
*970 FILLER_34_141
*971 FILLER_34_153
*972 FILLER_34_165
*973 FILLER_34_177
*974 FILLER_34_189
*975 FILLER_34_195
*976 FILLER_34_197
*977 FILLER_34_209
*978 FILLER_34_221
*979 FILLER_34_233
*980 FILLER_34_245
*981 FILLER_34_25
*982 FILLER_34_251
*983 FILLER_34_253
*984 FILLER_34_265
*985 FILLER_34_277
*986 FILLER_34_289
*987 FILLER_34_29
*988 FILLER_34_297
*989 FILLER_34_3
*990 FILLER_34_39
*991 FILLER_34_46
*992 FILLER_34_58
*993 FILLER_34_70
*994 FILLER_34_82
*995 FILLER_34_85
*996 FILLER_34_97
*997 FILLER_35_105
*998 FILLER_35_111
*999 FILLER_35_113
*1000 FILLER_35_125
*1001 FILLER_35_137
*1002 FILLER_35_14
*1003 FILLER_35_149
*1004 FILLER_35_161
*1005 FILLER_35_167
*1006 FILLER_35_169
*1007 FILLER_35_18
*1008 FILLER_35_181
*1009 FILLER_35_193
*1010 FILLER_35_205
*1011 FILLER_35_217
*1012 FILLER_35_223
*1013 FILLER_35_225
*1014 FILLER_35_237
*1015 FILLER_35_249
*1016 FILLER_35_261
*1017 FILLER_35_273
*1018 FILLER_35_279
*1019 FILLER_35_281
*1020 FILLER_35_293
*1021 FILLER_35_3
*1022 FILLER_35_39
*1023 FILLER_35_50
*1024 FILLER_35_57
*1025 FILLER_35_69
*1026 FILLER_35_81
*1027 FILLER_35_93
*1028 FILLER_36_109
*1029 FILLER_36_121
*1030 FILLER_36_133
*1031 FILLER_36_139
*1032 FILLER_36_141
*1033 FILLER_36_153
*1034 FILLER_36_165
*1035 FILLER_36_177
*1036 FILLER_36_189
*1037 FILLER_36_195
*1038 FILLER_36_197
*1039 FILLER_36_209
*1040 FILLER_36_221
*1041 FILLER_36_233
*1042 FILLER_36_245
*1043 FILLER_36_25
*1044 FILLER_36_251
*1045 FILLER_36_253
*1046 FILLER_36_265
*1047 FILLER_36_277
*1048 FILLER_36_289
*1049 FILLER_36_29
*1050 FILLER_36_297
*1051 FILLER_36_3
*1052 FILLER_36_39
*1053 FILLER_36_46
*1054 FILLER_36_53
*1055 FILLER_36_65
*1056 FILLER_36_77
*1057 FILLER_36_83
*1058 FILLER_36_85
*1059 FILLER_36_97
*1060 FILLER_37_10
*1061 FILLER_37_105
*1062 FILLER_37_111
*1063 FILLER_37_113
*1064 FILLER_37_125
*1065 FILLER_37_137
*1066 FILLER_37_149
*1067 FILLER_37_161
*1068 FILLER_37_167
*1069 FILLER_37_169
*1070 FILLER_37_181
*1071 FILLER_37_193
*1072 FILLER_37_205
*1073 FILLER_37_217
*1074 FILLER_37_223
*1075 FILLER_37_225
*1076 FILLER_37_237
*1077 FILLER_37_249
*1078 FILLER_37_261
*1079 FILLER_37_273
*1080 FILLER_37_279
*1081 FILLER_37_281
*1082 FILLER_37_293
*1083 FILLER_37_3
*1084 FILLER_37_36
*1085 FILLER_37_47
*1086 FILLER_37_54
*1087 FILLER_37_57
*1088 FILLER_37_69
*1089 FILLER_37_81
*1090 FILLER_37_93
*1091 FILLER_38_109
*1092 FILLER_38_121
*1093 FILLER_38_133
*1094 FILLER_38_139
*1095 FILLER_38_141
*1096 FILLER_38_153
*1097 FILLER_38_165
*1098 FILLER_38_177
*1099 FILLER_38_189
*1100 FILLER_38_195
*1101 FILLER_38_197
*1102 FILLER_38_209
*1103 FILLER_38_221
*1104 FILLER_38_233
*1105 FILLER_38_245
*1106 FILLER_38_251
*1107 FILLER_38_253
*1108 FILLER_38_26
*1109 FILLER_38_265
*1110 FILLER_38_277
*1111 FILLER_38_289
*1112 FILLER_38_29
*1113 FILLER_38_297
*1114 FILLER_38_3
*1115 FILLER_38_39
*1116 FILLER_38_51
*1117 FILLER_38_58
*1118 FILLER_38_70
*1119 FILLER_38_82
*1120 FILLER_38_85
*1121 FILLER_38_97
*1122 FILLER_39_105
*1123 FILLER_39_111
*1124 FILLER_39_113
*1125 FILLER_39_125
*1126 FILLER_39_137
*1127 FILLER_39_149
*1128 FILLER_39_15
*1129 FILLER_39_161
*1130 FILLER_39_167
*1131 FILLER_39_169
*1132 FILLER_39_181
*1133 FILLER_39_193
*1134 FILLER_39_205
*1135 FILLER_39_217
*1136 FILLER_39_223
*1137 FILLER_39_225
*1138 FILLER_39_237
*1139 FILLER_39_249
*1140 FILLER_39_261
*1141 FILLER_39_273
*1142 FILLER_39_279
*1143 FILLER_39_281
*1144 FILLER_39_293
*1145 FILLER_39_3
*1146 FILLER_39_36
*1147 FILLER_39_48
*1148 FILLER_39_57
*1149 FILLER_39_69
*1150 FILLER_39_81
*1151 FILLER_39_9
*1152 FILLER_39_93
*1153 FILLER_3_105
*1154 FILLER_3_111
*1155 FILLER_3_113
*1156 FILLER_3_125
*1157 FILLER_3_137
*1158 FILLER_3_149
*1159 FILLER_3_15
*1160 FILLER_3_161
*1161 FILLER_3_167
*1162 FILLER_3_169
*1163 FILLER_3_181
*1164 FILLER_3_193
*1165 FILLER_3_205
*1166 FILLER_3_217
*1167 FILLER_3_223
*1168 FILLER_3_225
*1169 FILLER_3_237
*1170 FILLER_3_249
*1171 FILLER_3_261
*1172 FILLER_3_27
*1173 FILLER_3_273
*1174 FILLER_3_279
*1175 FILLER_3_281
*1176 FILLER_3_293
*1177 FILLER_3_3
*1178 FILLER_3_39
*1179 FILLER_3_51
*1180 FILLER_3_55
*1181 FILLER_3_57
*1182 FILLER_3_69
*1183 FILLER_3_81
*1184 FILLER_3_93
*1185 FILLER_40_109
*1186 FILLER_40_121
*1187 FILLER_40_133
*1188 FILLER_40_139
*1189 FILLER_40_141
*1190 FILLER_40_153
*1191 FILLER_40_165
*1192 FILLER_40_177
*1193 FILLER_40_189
*1194 FILLER_40_195
*1195 FILLER_40_197
*1196 FILLER_40_209
*1197 FILLER_40_221
*1198 FILLER_40_233
*1199 FILLER_40_245
*1200 FILLER_40_25
*1201 FILLER_40_251
*1202 FILLER_40_253
*1203 FILLER_40_265
*1204 FILLER_40_277
*1205 FILLER_40_289
*1206 FILLER_40_29
*1207 FILLER_40_297
*1208 FILLER_40_3
*1209 FILLER_40_40
*1210 FILLER_40_52
*1211 FILLER_40_64
*1212 FILLER_40_76
*1213 FILLER_40_85
*1214 FILLER_40_97
*1215 FILLER_41_105
*1216 FILLER_41_111
*1217 FILLER_41_113
*1218 FILLER_41_125
*1219 FILLER_41_137
*1220 FILLER_41_149
*1221 FILLER_41_15
*1222 FILLER_41_161
*1223 FILLER_41_167
*1224 FILLER_41_169
*1225 FILLER_41_181
*1226 FILLER_41_193
*1227 FILLER_41_205
*1228 FILLER_41_217
*1229 FILLER_41_223
*1230 FILLER_41_225
*1231 FILLER_41_237
*1232 FILLER_41_249
*1233 FILLER_41_261
*1234 FILLER_41_273
*1235 FILLER_41_279
*1236 FILLER_41_281
*1237 FILLER_41_293
*1238 FILLER_41_3
*1239 FILLER_41_36
*1240 FILLER_41_48
*1241 FILLER_41_57
*1242 FILLER_41_69
*1243 FILLER_41_81
*1244 FILLER_41_9
*1245 FILLER_41_93
*1246 FILLER_42_109
*1247 FILLER_42_121
*1248 FILLER_42_133
*1249 FILLER_42_139
*1250 FILLER_42_14
*1251 FILLER_42_141
*1252 FILLER_42_153
*1253 FILLER_42_165
*1254 FILLER_42_177
*1255 FILLER_42_189
*1256 FILLER_42_195
*1257 FILLER_42_197
*1258 FILLER_42_209
*1259 FILLER_42_221
*1260 FILLER_42_23
*1261 FILLER_42_233
*1262 FILLER_42_245
*1263 FILLER_42_251
*1264 FILLER_42_253
*1265 FILLER_42_265
*1266 FILLER_42_27
*1267 FILLER_42_277
*1268 FILLER_42_289
*1269 FILLER_42_29
*1270 FILLER_42_297
*1271 FILLER_42_3
*1272 FILLER_42_41
*1273 FILLER_42_53
*1274 FILLER_42_65
*1275 FILLER_42_77
*1276 FILLER_42_8
*1277 FILLER_42_83
*1278 FILLER_42_85
*1279 FILLER_42_97
*1280 FILLER_43_105
*1281 FILLER_43_111
*1282 FILLER_43_113
*1283 FILLER_43_12
*1284 FILLER_43_125
*1285 FILLER_43_137
*1286 FILLER_43_149
*1287 FILLER_43_161
*1288 FILLER_43_167
*1289 FILLER_43_169
*1290 FILLER_43_181
*1291 FILLER_43_193
*1292 FILLER_43_205
*1293 FILLER_43_217
*1294 FILLER_43_223
*1295 FILLER_43_225
*1296 FILLER_43_237
*1297 FILLER_43_249
*1298 FILLER_43_261
*1299 FILLER_43_273
*1300 FILLER_43_279
*1301 FILLER_43_281
*1302 FILLER_43_293
*1303 FILLER_43_3
*1304 FILLER_43_36
*1305 FILLER_43_48
*1306 FILLER_43_57
*1307 FILLER_43_69
*1308 FILLER_43_81
*1309 FILLER_43_93
*1310 FILLER_44_109
*1311 FILLER_44_121
*1312 FILLER_44_13
*1313 FILLER_44_133
*1314 FILLER_44_139
*1315 FILLER_44_141
*1316 FILLER_44_153
*1317 FILLER_44_165
*1318 FILLER_44_177
*1319 FILLER_44_189
*1320 FILLER_44_195
*1321 FILLER_44_197
*1322 FILLER_44_209
*1323 FILLER_44_221
*1324 FILLER_44_23
*1325 FILLER_44_233
*1326 FILLER_44_245
*1327 FILLER_44_251
*1328 FILLER_44_253
*1329 FILLER_44_265
*1330 FILLER_44_27
*1331 FILLER_44_277
*1332 FILLER_44_289
*1333 FILLER_44_29
*1334 FILLER_44_297
*1335 FILLER_44_3
*1336 FILLER_44_35
*1337 FILLER_44_47
*1338 FILLER_44_59
*1339 FILLER_44_71
*1340 FILLER_44_83
*1341 FILLER_44_85
*1342 FILLER_44_97
*1343 FILLER_45_105
*1344 FILLER_45_111
*1345 FILLER_45_113
*1346 FILLER_45_125
*1347 FILLER_45_13
*1348 FILLER_45_137
*1349 FILLER_45_149
*1350 FILLER_45_161
*1351 FILLER_45_167
*1352 FILLER_45_169
*1353 FILLER_45_181
*1354 FILLER_45_193
*1355 FILLER_45_205
*1356 FILLER_45_217
*1357 FILLER_45_223
*1358 FILLER_45_225
*1359 FILLER_45_237
*1360 FILLER_45_249
*1361 FILLER_45_261
*1362 FILLER_45_273
*1363 FILLER_45_279
*1364 FILLER_45_281
*1365 FILLER_45_293
*1366 FILLER_45_3
*1367 FILLER_45_37
*1368 FILLER_45_49
*1369 FILLER_45_55
*1370 FILLER_45_57
*1371 FILLER_45_69
*1372 FILLER_45_81
*1373 FILLER_45_93
*1374 FILLER_46_109
*1375 FILLER_46_121
*1376 FILLER_46_133
*1377 FILLER_46_139
*1378 FILLER_46_141
*1379 FILLER_46_153
*1380 FILLER_46_165
*1381 FILLER_46_177
*1382 FILLER_46_189
*1383 FILLER_46_195
*1384 FILLER_46_197
*1385 FILLER_46_209
*1386 FILLER_46_221
*1387 FILLER_46_233
*1388 FILLER_46_245
*1389 FILLER_46_25
*1390 FILLER_46_251
*1391 FILLER_46_253
*1392 FILLER_46_265
*1393 FILLER_46_277
*1394 FILLER_46_289
*1395 FILLER_46_29
*1396 FILLER_46_297
*1397 FILLER_46_3
*1398 FILLER_46_40
*1399 FILLER_46_52
*1400 FILLER_46_64
*1401 FILLER_46_76
*1402 FILLER_46_85
*1403 FILLER_46_97
*1404 FILLER_47_105
*1405 FILLER_47_111
*1406 FILLER_47_113
*1407 FILLER_47_125
*1408 FILLER_47_137
*1409 FILLER_47_149
*1410 FILLER_47_161
*1411 FILLER_47_167
*1412 FILLER_47_169
*1413 FILLER_47_181
*1414 FILLER_47_193
*1415 FILLER_47_205
*1416 FILLER_47_217
*1417 FILLER_47_223
*1418 FILLER_47_225
*1419 FILLER_47_237
*1420 FILLER_47_249
*1421 FILLER_47_261
*1422 FILLER_47_273
*1423 FILLER_47_279
*1424 FILLER_47_281
*1425 FILLER_47_293
*1426 FILLER_47_3
*1427 FILLER_47_35
*1428 FILLER_47_47
*1429 FILLER_47_55
*1430 FILLER_47_57
*1431 FILLER_47_69
*1432 FILLER_47_81
*1433 FILLER_47_93
*1434 FILLER_48_109
*1435 FILLER_48_121
*1436 FILLER_48_133
*1437 FILLER_48_139
*1438 FILLER_48_141
*1439 FILLER_48_15
*1440 FILLER_48_153
*1441 FILLER_48_165
*1442 FILLER_48_177
*1443 FILLER_48_189
*1444 FILLER_48_195
*1445 FILLER_48_197
*1446 FILLER_48_209
*1447 FILLER_48_221
*1448 FILLER_48_233
*1449 FILLER_48_24
*1450 FILLER_48_245
*1451 FILLER_48_251
*1452 FILLER_48_253
*1453 FILLER_48_265
*1454 FILLER_48_277
*1455 FILLER_48_289
*1456 FILLER_48_29
*1457 FILLER_48_297
*1458 FILLER_48_3
*1459 FILLER_48_41
*1460 FILLER_48_53
*1461 FILLER_48_65
*1462 FILLER_48_77
*1463 FILLER_48_83
*1464 FILLER_48_85
*1465 FILLER_48_97
*1466 FILLER_49_105
*1467 FILLER_49_111
*1468 FILLER_49_113
*1469 FILLER_49_125
*1470 FILLER_49_137
*1471 FILLER_49_149
*1472 FILLER_49_15
*1473 FILLER_49_161
*1474 FILLER_49_167
*1475 FILLER_49_169
*1476 FILLER_49_181
*1477 FILLER_49_193
*1478 FILLER_49_205
*1479 FILLER_49_217
*1480 FILLER_49_223
*1481 FILLER_49_225
*1482 FILLER_49_237
*1483 FILLER_49_249
*1484 FILLER_49_25
*1485 FILLER_49_261
*1486 FILLER_49_273
*1487 FILLER_49_279
*1488 FILLER_49_281
*1489 FILLER_49_293
*1490 FILLER_49_3
*1491 FILLER_49_33
*1492 FILLER_49_45
*1493 FILLER_49_53
*1494 FILLER_49_57
*1495 FILLER_49_69
*1496 FILLER_49_81
*1497 FILLER_49_93
*1498 FILLER_4_109
*1499 FILLER_4_121
*1500 FILLER_4_133
*1501 FILLER_4_139
*1502 FILLER_4_141
*1503 FILLER_4_15
*1504 FILLER_4_153
*1505 FILLER_4_165
*1506 FILLER_4_177
*1507 FILLER_4_189
*1508 FILLER_4_195
*1509 FILLER_4_197
*1510 FILLER_4_209
*1511 FILLER_4_221
*1512 FILLER_4_233
*1513 FILLER_4_245
*1514 FILLER_4_251
*1515 FILLER_4_253
*1516 FILLER_4_265
*1517 FILLER_4_27
*1518 FILLER_4_277
*1519 FILLER_4_289
*1520 FILLER_4_29
*1521 FILLER_4_297
*1522 FILLER_4_3
*1523 FILLER_4_41
*1524 FILLER_4_53
*1525 FILLER_4_65
*1526 FILLER_4_77
*1527 FILLER_4_83
*1528 FILLER_4_85
*1529 FILLER_4_97
*1530 FILLER_50_109
*1531 FILLER_50_121
*1532 FILLER_50_133
*1533 FILLER_50_139
*1534 FILLER_50_141
*1535 FILLER_50_153
*1536 FILLER_50_16
*1537 FILLER_50_165
*1538 FILLER_50_177
*1539 FILLER_50_189
*1540 FILLER_50_195
*1541 FILLER_50_197
*1542 FILLER_50_209
*1543 FILLER_50_221
*1544 FILLER_50_233
*1545 FILLER_50_245
*1546 FILLER_50_25
*1547 FILLER_50_251
*1548 FILLER_50_253
*1549 FILLER_50_265
*1550 FILLER_50_277
*1551 FILLER_50_289
*1552 FILLER_50_29
*1553 FILLER_50_297
*1554 FILLER_50_3
*1555 FILLER_50_41
*1556 FILLER_50_53
*1557 FILLER_50_65
*1558 FILLER_50_7
*1559 FILLER_50_77
*1560 FILLER_50_83
*1561 FILLER_50_85
*1562 FILLER_50_97
*1563 FILLER_51_105
*1564 FILLER_51_111
*1565 FILLER_51_113
*1566 FILLER_51_125
*1567 FILLER_51_137
*1568 FILLER_51_149
*1569 FILLER_51_161
*1570 FILLER_51_167
*1571 FILLER_51_169
*1572 FILLER_51_181
*1573 FILLER_51_193
*1574 FILLER_51_205
*1575 FILLER_51_217
*1576 FILLER_51_223
*1577 FILLER_51_225
*1578 FILLER_51_237
*1579 FILLER_51_249
*1580 FILLER_51_25
*1581 FILLER_51_261
*1582 FILLER_51_273
*1583 FILLER_51_279
*1584 FILLER_51_281
*1585 FILLER_51_293
*1586 FILLER_51_3
*1587 FILLER_51_33
*1588 FILLER_51_45
*1589 FILLER_51_53
*1590 FILLER_51_57
*1591 FILLER_51_69
*1592 FILLER_51_81
*1593 FILLER_51_93
*1594 FILLER_52_109
*1595 FILLER_52_121
*1596 FILLER_52_133
*1597 FILLER_52_139
*1598 FILLER_52_14
*1599 FILLER_52_141