*SPEF "ieee 1481-1999"
*DESIGN "user_module_362379207695863809"
*DATE "11:11:11 Fri 11 11, 1111"
*VENDOR "OpenRCX"
*PROGRAM "Parallel Extraction"
*VERSION "1.0"
*DESIGN_FLOW "NAME_SCOPE LOCAL" "PIN_CAP NONE"
*DIVIDER /
*DELIMITER :
*BUS_DELIMITER []
*T_UNIT 1 NS
*C_UNIT 1 PF
*R_UNIT 1 OHM
*L_UNIT 1 HENRY

*NAME_MAP
*1 io_in[0]
*2 io_in[1]
*3 io_in[2]
*4 io_in[3]
*5 io_in[4]
*6 io_in[5]
*7 io_in[6]
*8 io_in[7]
*9 net7
*10 io_out[1]
*11 io_out[2]
*12 io_out[3]
*13 io_out[4]
*14 io_out[5]
*15 io_out[6]
*16 net8
*19 _00_
*20 _01_
*21 _02_
*22 _03_
*23 _04_
*24 _05_
*25 _06_
*26 _07_
*27 _08_
*28 _09_
*29 _10_
*30 _11_
*31 _12_
*32 _13_
*33 _14_
*34 _15_
*35 _16_
*36 _17_
*37 _18_
*38 _19_
*39 _20_
*40 and1\.out
*41 net1
*42 net2
*43 net3
*44 net4
*45 net5
*46 net6
*47 or1\.out
*48 xor1\.out
*49 xor10\.out
*50 xor5\.out
*51 xor9\.out
*52 FILLER_0_109
*53 FILLER_0_113
*54 FILLER_0_125
*55 FILLER_0_137
*56 FILLER_0_141
*57 FILLER_0_15
*58 FILLER_0_153
*59 FILLER_0_165
*60 FILLER_0_169
*61 FILLER_0_181
*62 FILLER_0_193
*63 FILLER_0_197
*64 FILLER_0_209
*65 FILLER_0_221
*66 FILLER_0_225
*67 FILLER_0_237
*68 FILLER_0_249
*69 FILLER_0_253
*70 FILLER_0_265
*71 FILLER_0_27
*72 FILLER_0_277
*73 FILLER_0_281
*74 FILLER_0_29
*75 FILLER_0_293
*76 FILLER_0_3
*77 FILLER_0_41
*78 FILLER_0_53
*79 FILLER_0_57
*80 FILLER_0_69
*81 FILLER_0_81
*82 FILLER_0_85
*83 FILLER_0_97
*84 FILLER_10_109
*85 FILLER_10_121
*86 FILLER_10_133
*87 FILLER_10_139
*88 FILLER_10_141
*89 FILLER_10_15
*90 FILLER_10_153
*91 FILLER_10_165
*92 FILLER_10_177
*93 FILLER_10_189
*94 FILLER_10_195
*95 FILLER_10_197
*96 FILLER_10_209
*97 FILLER_10_221
*98 FILLER_10_233
*99 FILLER_10_245
*100 FILLER_10_251
*101 FILLER_10_253
*102 FILLER_10_265
*103 FILLER_10_27
*104 FILLER_10_277
*105 FILLER_10_289
*106 FILLER_10_29
*107 FILLER_10_297
*108 FILLER_10_3
*109 FILLER_10_41
*110 FILLER_10_53
*111 FILLER_10_65
*112 FILLER_10_77
*113 FILLER_10_83
*114 FILLER_10_85
*115 FILLER_10_97
*116 FILLER_11_105
*117 FILLER_11_111
*118 FILLER_11_113
*119 FILLER_11_125
*120 FILLER_11_137
*121 FILLER_11_149
*122 FILLER_11_15
*123 FILLER_11_161
*124 FILLER_11_167
*125 FILLER_11_169
*126 FILLER_11_181
*127 FILLER_11_193
*128 FILLER_11_205
*129 FILLER_11_217
*130 FILLER_11_223
*131 FILLER_11_225
*132 FILLER_11_237
*133 FILLER_11_249
*134 FILLER_11_261
*135 FILLER_11_27
*136 FILLER_11_273
*137 FILLER_11_279
*138 FILLER_11_281
*139 FILLER_11_293
*140 FILLER_11_3
*141 FILLER_11_39
*142 FILLER_11_51
*143 FILLER_11_55
*144 FILLER_11_57
*145 FILLER_11_69
*146 FILLER_11_81
*147 FILLER_11_93
*148 FILLER_12_109
*149 FILLER_12_121
*150 FILLER_12_133
*151 FILLER_12_139
*152 FILLER_12_141
*153 FILLER_12_153
*154 FILLER_12_165
*155 FILLER_12_177
*156 FILLER_12_189
*157 FILLER_12_195
*158 FILLER_12_197
*159 FILLER_12_209
*160 FILLER_12_21
*161 FILLER_12_221
*162 FILLER_12_233
*163 FILLER_12_245
*164 FILLER_12_251
*165 FILLER_12_253
*166 FILLER_12_265
*167 FILLER_12_27
*168 FILLER_12_277
*169 FILLER_12_289
*170 FILLER_12_29
*171 FILLER_12_297
*172 FILLER_12_3
*173 FILLER_12_41
*174 FILLER_12_53
*175 FILLER_12_65
*176 FILLER_12_77
*177 FILLER_12_83
*178 FILLER_12_85
*179 FILLER_12_9
*180 FILLER_12_97
*181 FILLER_13_105
*182 FILLER_13_111
*183 FILLER_13_113
*184 FILLER_13_125
*185 FILLER_13_137
*186 FILLER_13_149
*187 FILLER_13_15
*188 FILLER_13_161
*189 FILLER_13_167
*190 FILLER_13_169
*191 FILLER_13_181
*192 FILLER_13_193
*193 FILLER_13_205
*194 FILLER_13_217
*195 FILLER_13_223
*196 FILLER_13_225
*197 FILLER_13_237
*198 FILLER_13_249
*199 FILLER_13_261
*200 FILLER_13_27
*201 FILLER_13_273
*202 FILLER_13_279
*203 FILLER_13_281
*204 FILLER_13_293
*205 FILLER_13_3
*206 FILLER_13_39
*207 FILLER_13_51
*208 FILLER_13_55
*209 FILLER_13_57
*210 FILLER_13_69
*211 FILLER_13_81
*212 FILLER_13_93
*213 FILLER_14_109
*214 FILLER_14_121
*215 FILLER_14_133
*216 FILLER_14_139
*217 FILLER_14_141
*218 FILLER_14_15
*219 FILLER_14_153
*220 FILLER_14_165
*221 FILLER_14_177
*222 FILLER_14_189
*223 FILLER_14_195
*224 FILLER_14_197
*225 FILLER_14_209
*226 FILLER_14_221
*227 FILLER_14_233
*228 FILLER_14_245
*229 FILLER_14_251
*230 FILLER_14_253
*231 FILLER_14_265
*232 FILLER_14_27
*233 FILLER_14_277
*234 FILLER_14_289
*235 FILLER_14_29
*236 FILLER_14_297
*237 FILLER_14_3
*238 FILLER_14_41
*239 FILLER_14_53
*240 FILLER_14_65
*241 FILLER_14_77
*242 FILLER_14_83
*243 FILLER_14_85
*244 FILLER_14_97
*245 FILLER_15_105
*246 FILLER_15_111
*247 FILLER_15_113
*248 FILLER_15_125
*249 FILLER_15_137
*250 FILLER_15_149
*251 FILLER_15_15
*252 FILLER_15_161
*253 FILLER_15_167
*254 FILLER_15_169
*255 FILLER_15_181
*256 FILLER_15_193
*257 FILLER_15_205
*258 FILLER_15_217
*259 FILLER_15_223
*260 FILLER_15_225
*261 FILLER_15_237
*262 FILLER_15_249
*263 FILLER_15_261
*264 FILLER_15_27
*265 FILLER_15_273
*266 FILLER_15_279
*267 FILLER_15_281
*268 FILLER_15_293
*269 FILLER_15_3
*270 FILLER_15_39
*271 FILLER_15_51
*272 FILLER_15_55
*273 FILLER_15_57
*274 FILLER_15_69
*275 FILLER_15_81
*276 FILLER_15_93
*277 FILLER_16_109
*278 FILLER_16_121
*279 FILLER_16_133
*280 FILLER_16_139
*281 FILLER_16_141
*282 FILLER_16_153
*283 FILLER_16_165
*284 FILLER_16_177
*285 FILLER_16_189
*286 FILLER_16_195
*287 FILLER_16_197
*288 FILLER_16_20
*289 FILLER_16_209
*290 FILLER_16_221
*291 FILLER_16_233
*292 FILLER_16_245
*293 FILLER_16_251
*294 FILLER_16_253
*295 FILLER_16_265
*296 FILLER_16_277
*297 FILLER_16_289
*298 FILLER_16_29
*299 FILLER_16_297
*300 FILLER_16_3
*301 FILLER_16_41
*302 FILLER_16_53
*303 FILLER_16_65
*304 FILLER_16_77
*305 FILLER_16_8
*306 FILLER_16_83
*307 FILLER_16_85
*308 FILLER_16_97
*309 FILLER_17_105
*310 FILLER_17_111
*311 FILLER_17_113
*312 FILLER_17_125
*313 FILLER_17_137
*314 FILLER_17_149
*315 FILLER_17_15
*316 FILLER_17_161
*317 FILLER_17_167
*318 FILLER_17_169
*319 FILLER_17_181
*320 FILLER_17_193
*321 FILLER_17_205
*322 FILLER_17_217
*323 FILLER_17_223
*324 FILLER_17_225
*325 FILLER_17_237
*326 FILLER_17_249
*327 FILLER_17_261
*328 FILLER_17_27
*329 FILLER_17_273
*330 FILLER_17_279
*331 FILLER_17_281
*332 FILLER_17_293
*333 FILLER_17_3
*334 FILLER_17_39
*335 FILLER_17_51
*336 FILLER_17_55
*337 FILLER_17_57
*338 FILLER_17_69
*339 FILLER_17_81
*340 FILLER_17_93
*341 FILLER_18_109
*342 FILLER_18_11
*343 FILLER_18_121
*344 FILLER_18_133
*345 FILLER_18_139
*346 FILLER_18_141
*347 FILLER_18_153
*348 FILLER_18_165
*349 FILLER_18_177
*350 FILLER_18_189
*351 FILLER_18_195
*352 FILLER_18_197
*353 FILLER_18_20
*354 FILLER_18_209
*355 FILLER_18_221
*356 FILLER_18_233
*357 FILLER_18_245
*358 FILLER_18_251
*359 FILLER_18_253
*360 FILLER_18_265
*361 FILLER_18_277
*362 FILLER_18_289
*363 FILLER_18_29
*364 FILLER_18_297
*365 FILLER_18_3
*366 FILLER_18_41
*367 FILLER_18_53
*368 FILLER_18_65
*369 FILLER_18_77
*370 FILLER_18_83
*371 FILLER_18_85
*372 FILLER_18_97
*373 FILLER_19_105
*374 FILLER_19_11
*375 FILLER_19_111
*376 FILLER_19_113
*377 FILLER_19_125
*378 FILLER_19_137
*379 FILLER_19_149
*380 FILLER_19_161
*381 FILLER_19_167
*382 FILLER_19_169
*383 FILLER_19_181
*384 FILLER_19_193
*385 FILLER_19_205
*386 FILLER_19_217
*387 FILLER_19_22
*388 FILLER_19_223
*389 FILLER_19_225
*390 FILLER_19_237
*391 FILLER_19_249
*392 FILLER_19_261
*393 FILLER_19_273
*394 FILLER_19_279
*395 FILLER_19_281
*396 FILLER_19_293
*397 FILLER_19_3
*398 FILLER_19_34
*399 FILLER_19_46
*400 FILLER_19_54
*401 FILLER_19_57
*402 FILLER_19_69
*403 FILLER_19_81
*404 FILLER_19_93
*405 FILLER_1_105
*406 FILLER_1_111
*407 FILLER_1_113
*408 FILLER_1_125
*409 FILLER_1_137
*410 FILLER_1_149
*411 FILLER_1_15
*412 FILLER_1_161
*413 FILLER_1_167
*414 FILLER_1_169
*415 FILLER_1_181
*416 FILLER_1_193
*417 FILLER_1_205
*418 FILLER_1_217
*419 FILLER_1_223
*420 FILLER_1_225
*421 FILLER_1_237
*422 FILLER_1_249
*423 FILLER_1_261
*424 FILLER_1_27
*425 FILLER_1_273
*426 FILLER_1_279
*427 FILLER_1_281
*428 FILLER_1_293
*429 FILLER_1_3
*430 FILLER_1_39
*431 FILLER_1_51
*432 FILLER_1_55
*433 FILLER_1_57
*434 FILLER_1_69
*435 FILLER_1_81
*436 FILLER_1_93
*437 FILLER_20_109
*438 FILLER_20_121
*439 FILLER_20_133
*440 FILLER_20_139
*441 FILLER_20_141
*442 FILLER_20_15
*443 FILLER_20_153
*444 FILLER_20_165
*445 FILLER_20_177
*446 FILLER_20_189
*447 FILLER_20_195
*448 FILLER_20_197
*449 FILLER_20_209
*450 FILLER_20_221
*451 FILLER_20_233
*452 FILLER_20_245
*453 FILLER_20_251
*454 FILLER_20_253
*455 FILLER_20_26
*456 FILLER_20_265
*457 FILLER_20_277
*458 FILLER_20_289
*459 FILLER_20_29
*460 FILLER_20_297
*461 FILLER_20_3
*462 FILLER_20_34
*463 FILLER_20_46
*464 FILLER_20_58
*465 FILLER_20_70
*466 FILLER_20_82
*467 FILLER_20_85
*468 FILLER_20_97
*469 FILLER_21_105
*470 FILLER_21_111
*471 FILLER_21_113
*472 FILLER_21_125
*473 FILLER_21_137
*474 FILLER_21_149
*475 FILLER_21_15
*476 FILLER_21_161
*477 FILLER_21_167
*478 FILLER_21_169
*479 FILLER_21_181
*480 FILLER_21_193
*481 FILLER_21_205
*482 FILLER_21_217
*483 FILLER_21_223
*484 FILLER_21_225
*485 FILLER_21_237
*486 FILLER_21_249
*487 FILLER_21_261
*488 FILLER_21_273
*489 FILLER_21_279
*490 FILLER_21_28
*491 FILLER_21_281
*492 FILLER_21_293
*493 FILLER_21_3
*494 FILLER_21_39
*495 FILLER_21_51
*496 FILLER_21_55
*497 FILLER_21_57
*498 FILLER_21_69
*499 FILLER_21_81
*500 FILLER_21_93
*501 FILLER_22_109
*502 FILLER_22_121
*503 FILLER_22_133
*504 FILLER_22_139
*505 FILLER_22_141
*506 FILLER_22_15
*507 FILLER_22_153
*508 FILLER_22_165
*509 FILLER_22_177
*510 FILLER_22_189
*511 FILLER_22_195
*512 FILLER_22_197
*513 FILLER_22_209
*514 FILLER_22_221
*515 FILLER_22_233
*516 FILLER_22_245
*517 FILLER_22_251
*518 FILLER_22_253
*519 FILLER_22_26
*520 FILLER_22_265
*521 FILLER_22_277
*522 FILLER_22_289
*523 FILLER_22_29
*524 FILLER_22_297
*525 FILLER_22_3
*526 FILLER_22_41
*527 FILLER_22_53
*528 FILLER_22_65
*529 FILLER_22_77
*530 FILLER_22_83
*531 FILLER_22_85
*532 FILLER_22_97
*533 FILLER_23_105
*534 FILLER_23_111
*535 FILLER_23_113
*536 FILLER_23_125
*537 FILLER_23_137
*538 FILLER_23_149
*539 FILLER_23_15
*540 FILLER_23_161
*541 FILLER_23_167
*542 FILLER_23_169
*543 FILLER_23_181
*544 FILLER_23_193
*545 FILLER_23_205
*546 FILLER_23_217
*547 FILLER_23_223
*548 FILLER_23_225
*549 FILLER_23_237
*550 FILLER_23_249
*551 FILLER_23_261
*552 FILLER_23_27
*553 FILLER_23_273
*554 FILLER_23_279
*555 FILLER_23_281
*556 FILLER_23_293
*557 FILLER_23_3
*558 FILLER_23_39
*559 FILLER_23_51
*560 FILLER_23_55
*561 FILLER_23_57
*562 FILLER_23_69
*563 FILLER_23_81
*564 FILLER_23_93
*565 FILLER_24_109
*566 FILLER_24_121
*567 FILLER_24_133
*568 FILLER_24_139
*569 FILLER_24_141
*570 FILLER_24_15
*571 FILLER_24_153
*572 FILLER_24_165
*573 FILLER_24_177
*574 FILLER_24_189
*575 FILLER_24_195
*576 FILLER_24_197
*577 FILLER_24_209
*578 FILLER_24_221
*579 FILLER_24_233
*580 FILLER_24_245
*581 FILLER_24_251
*582 FILLER_24_253
*583 FILLER_24_26
*584 FILLER_24_265
*585 FILLER_24_277
*586 FILLER_24_289
*587 FILLER_24_29
*588 FILLER_24_297
*589 FILLER_24_3
*590 FILLER_24_41
*591 FILLER_24_53
*592 FILLER_24_65
*593 FILLER_24_77
*594 FILLER_24_83
*595 FILLER_24_85
*596 FILLER_24_97
*597 FILLER_25_105
*598 FILLER_25_111
*599 FILLER_25_113
*600 FILLER_25_125
*601 FILLER_25_137
*602 FILLER_25_149
*603 FILLER_25_15
*604 FILLER_25_161
*605 FILLER_25_167
*606 FILLER_25_169
*607 FILLER_25_181
*608 FILLER_25_193
*609 FILLER_25_205
*610 FILLER_25_21
*611 FILLER_25_217
*612 FILLER_25_223
*613 FILLER_25_225
*614 FILLER_25_237
*615 FILLER_25_249
*616 FILLER_25_261
*617 FILLER_25_273
*618 FILLER_25_279
*619 FILLER_25_28
*620 FILLER_25_281
*621 FILLER_25_293
*622 FILLER_25_3
*623 FILLER_25_39
*624 FILLER_25_51
*625 FILLER_25_55
*626 FILLER_25_57
*627 FILLER_25_69
*628 FILLER_25_81
*629 FILLER_25_93
*630 FILLER_26_109
*631 FILLER_26_121
*632 FILLER_26_133
*633 FILLER_26_139
*634 FILLER_26_141
*635 FILLER_26_15
*636 FILLER_26_153
*637 FILLER_26_165
*638 FILLER_26_177
*639 FILLER_26_189
*640 FILLER_26_195
*641 FILLER_26_197
*642 FILLER_26_209
*643 FILLER_26_221
*644 FILLER_26_233
*645 FILLER_26_24
*646 FILLER_26_245
*647 FILLER_26_251
*648 FILLER_26_253
*649 FILLER_26_265
*650 FILLER_26_277
*651 FILLER_26_289
*652 FILLER_26_29
*653 FILLER_26_297
*654 FILLER_26_3
*655 FILLER_26_41
*656 FILLER_26_53
*657 FILLER_26_65
*658 FILLER_26_77
*659 FILLER_26_83
*660 FILLER_26_85
*661 FILLER_26_97
*662 FILLER_27_105
*663 FILLER_27_111
*664 FILLER_27_113
*665 FILLER_27_125
*666 FILLER_27_137
*667 FILLER_27_149
*668 FILLER_27_15
*669 FILLER_27_161
*670 FILLER_27_167
*671 FILLER_27_169
*672 FILLER_27_181
*673 FILLER_27_193
*674 FILLER_27_205
*675 FILLER_27_217
*676 FILLER_27_223
*677 FILLER_27_225
*678 FILLER_27_23
*679 FILLER_27_237
*680 FILLER_27_249
*681 FILLER_27_261
*682 FILLER_27_273
*683 FILLER_27_279
*684 FILLER_27_281
*685 FILLER_27_293
*686 FILLER_27_3
*687 FILLER_27_35
*688 FILLER_27_47
*689 FILLER_27_55
*690 FILLER_27_57
*691 FILLER_27_69
*692 FILLER_27_81
*693 FILLER_27_93
*694 FILLER_28_109
*695 FILLER_28_121
*696 FILLER_28_133
*697 FILLER_28_139
*698 FILLER_28_141
*699 FILLER_28_15
*700 FILLER_28_153
*701 FILLER_28_165
*702 FILLER_28_177
*703 FILLER_28_189
*704 FILLER_28_195
*705 FILLER_28_197
*706 FILLER_28_209
*707 FILLER_28_22
*708 FILLER_28_221
*709 FILLER_28_233
*710 FILLER_28_245
*711 FILLER_28_251
*712 FILLER_28_253
*713 FILLER_28_265
*714 FILLER_28_277
*715 FILLER_28_289
*716 FILLER_28_29
*717 FILLER_28_297
*718 FILLER_28_3
*719 FILLER_28_41
*720 FILLER_28_53
*721 FILLER_28_65
*722 FILLER_28_77
*723 FILLER_28_83
*724 FILLER_28_85
*725 FILLER_28_97
*726 FILLER_29_105
*727 FILLER_29_111
*728 FILLER_29_113
*729 FILLER_29_125
*730 FILLER_29_137
*731 FILLER_29_149
*732 FILLER_29_161
*733 FILLER_29_167
*734 FILLER_29_169
*735 FILLER_29_181
*736 FILLER_29_193
*737 FILLER_29_205
*738 FILLER_29_217
*739 FILLER_29_223
*740 FILLER_29_225
*741 FILLER_29_237
*742 FILLER_29_24
*743 FILLER_29_249
*744 FILLER_29_261
*745 FILLER_29_273
*746 FILLER_29_279
*747 FILLER_29_281
*748 FILLER_29_293
*749 FILLER_29_3
*750 FILLER_29_32
*751 FILLER_29_39
*752 FILLER_29_51
*753 FILLER_29_55
*754 FILLER_29_57
*755 FILLER_29_69
*756 FILLER_29_81
*757 FILLER_29_93
*758 FILLER_2_109
*759 FILLER_2_121
*760 FILLER_2_133
*761 FILLER_2_139
*762 FILLER_2_141
*763 FILLER_2_15
*764 FILLER_2_153
*765 FILLER_2_165
*766 FILLER_2_177
*767 FILLER_2_189
*768 FILLER_2_195
*769 FILLER_2_197
*770 FILLER_2_209
*771 FILLER_2_221
*772 FILLER_2_233
*773 FILLER_2_245
*774 FILLER_2_251
*775 FILLER_2_253
*776 FILLER_2_265
*777 FILLER_2_27
*778 FILLER_2_277
*779 FILLER_2_289
*780 FILLER_2_29
*781 FILLER_2_297
*782 FILLER_2_3
*783 FILLER_2_41
*784 FILLER_2_53
*785 FILLER_2_65
*786 FILLER_2_77
*787 FILLER_2_83
*788 FILLER_2_85
*789 FILLER_2_97
*790 FILLER_30_109
*791 FILLER_30_121
*792 FILLER_30_13
*793 FILLER_30_133
*794 FILLER_30_139
*795 FILLER_30_141
*796 FILLER_30_153
*797 FILLER_30_165
*798 FILLER_30_177
*799 FILLER_30_189
*800 FILLER_30_195
*801 FILLER_30_197
*802 FILLER_30_209
*803 FILLER_30_221
*804 FILLER_30_23
*805 FILLER_30_233
*806 FILLER_30_245
*807 FILLER_30_251
*808 FILLER_30_253
*809 FILLER_30_265
*810 FILLER_30_27
*811 FILLER_30_277
*812 FILLER_30_289
*813 FILLER_30_29
*814 FILLER_30_297
*815 FILLER_30_3
*816 FILLER_30_41
*817 FILLER_30_53
*818 FILLER_30_65
*819 FILLER_30_77
*820 FILLER_30_83
*821 FILLER_30_85
*822 FILLER_30_9
*823 FILLER_30_97
*824 FILLER_31_105
*825 FILLER_31_111
*826 FILLER_31_113
*827 FILLER_31_125
*828 FILLER_31_137
*829 FILLER_31_149
*830 FILLER_31_161
*831 FILLER_31_167
*832 FILLER_31_169
*833 FILLER_31_181
*834 FILLER_31_193
*835 FILLER_31_205
*836 FILLER_31_21
*837 FILLER_31_217
*838 FILLER_31_223
*839 FILLER_31_225
*840 FILLER_31_237
*841 FILLER_31_249
*842 FILLER_31_261
*843 FILLER_31_273
*844 FILLER_31_279
*845 FILLER_31_281
*846 FILLER_31_293
*847 FILLER_31_3
*848 FILLER_31_33
*849 FILLER_31_45
*850 FILLER_31_53
*851 FILLER_31_57
*852 FILLER_31_69
*853 FILLER_31_8
*854 FILLER_31_81
*855 FILLER_31_93
*856 FILLER_32_109
*857 FILLER_32_121
*858 FILLER_32_133
*859 FILLER_32_139
*860 FILLER_32_141
*861 FILLER_32_15
*862 FILLER_32_153
*863 FILLER_32_165
*864 FILLER_32_177
*865 FILLER_32_189
*866 FILLER_32_19
*867 FILLER_32_195
*868 FILLER_32_197
*869 FILLER_32_209
*870 FILLER_32_221
*871 FILLER_32_233
*872 FILLER_32_245
*873 FILLER_32_251
*874 FILLER_32_253
*875 FILLER_32_265
*876 FILLER_32_27
*877 FILLER_32_277
*878 FILLER_32_289
*879 FILLER_32_29
*880 FILLER_32_297
*881 FILLER_32_3
*882 FILLER_32_41
*883 FILLER_32_53
*884 FILLER_32_65
*885 FILLER_32_77
*886 FILLER_32_83
*887 FILLER_32_85
*888 FILLER_32_97
*889 FILLER_33_105
*890 FILLER_33_111
*891 FILLER_33_113
*892 FILLER_33_125
*893 FILLER_33_137
*894 FILLER_33_149
*895 FILLER_33_15
*896 FILLER_33_161
*897 FILLER_33_167
*898 FILLER_33_169
*899 FILLER_33_181
*900 FILLER_33_193
*901 FILLER_33_205
*902 FILLER_33_217
*903 FILLER_33_223
*904 FILLER_33_225
*905 FILLER_33_237
*906 FILLER_33_249
*907 FILLER_33_261
*908 FILLER_33_27
*909 FILLER_33_273
*910 FILLER_33_279
*911 FILLER_33_281
*912 FILLER_33_293
*913 FILLER_33_3
*914 FILLER_33_39
*915 FILLER_33_51
*916 FILLER_33_55
*917 FILLER_33_57
*918 FILLER_33_69
*919 FILLER_33_81
*920 FILLER_33_93
*921 FILLER_34_109
*922 FILLER_34_11
*923 FILLER_34_121
*924 FILLER_34_133
*925 FILLER_34_139
*926 FILLER_34_141
*927 FILLER_34_153
*928 FILLER_34_165
*929 FILLER_34_177
*930 FILLER_34_18
*931 FILLER_34_189
*932 FILLER_34_195
*933 FILLER_34_197
*934 FILLER_34_209
*935 FILLER_34_221
*936 FILLER_34_233
*937 FILLER_34_245
*938 FILLER_34_251
*939 FILLER_34_253
*940 FILLER_34_26
*941 FILLER_34_265
*942 FILLER_34_277
*943 FILLER_34_289
*944 FILLER_34_29
*945 FILLER_34_297
*946 FILLER_34_3
*947 FILLER_34_41
*948 FILLER_34_53
*949 FILLER_34_65
*950 FILLER_34_77
*951 FILLER_34_83
*952 FILLER_34_85
*953 FILLER_34_97
*954 FILLER_35_105
*955 FILLER_35_11
*956 FILLER_35_111
*957 FILLER_35_113
*958 FILLER_35_125
*959 FILLER_35_137
*960 FILLER_35_149
*961 FILLER_35_161
*962 FILLER_35_167
*963 FILLER_35_169
*964 FILLER_35_17
*965 FILLER_35_181
*966 FILLER_35_193
*967 FILLER_35_205
*968 FILLER_35_217
*969 FILLER_35_223
*970 FILLER_35_225
*971 FILLER_35_237
*972 FILLER_35_24
*973 FILLER_35_249
*974 FILLER_35_261
*975 FILLER_35_273
*976 FILLER_35_279
*977 FILLER_35_281
*978 FILLER_35_293
*979 FILLER_35_3
*980 FILLER_35_36
*981 FILLER_35_48
*982 FILLER_35_57
*983 FILLER_35_69
*984 FILLER_35_81
*985 FILLER_35_93
*986 FILLER_36_109
*987 FILLER_36_121
*988 FILLER_36_133
*989 FILLER_36_139
*990 FILLER_36_141
*991 FILLER_36_153
*992 FILLER_36_165
*993 FILLER_36_177
*994 FILLER_36_18
*995 FILLER_36_189
*996 FILLER_36_195
*997 FILLER_36_197
*998 FILLER_36_209
*999 FILLER_36_221
*1000 FILLER_36_233
*1001 FILLER_36_245
*1002 FILLER_36_251
*1003 FILLER_36_253
*1004 FILLER_36_26
*1005 FILLER_36_265
*1006 FILLER_36_277
*1007 FILLER_36_289
*1008 FILLER_36_29
*1009 FILLER_36_297
*1010 FILLER_36_3
*1011 FILLER_36_41
*1012 FILLER_36_53
*1013 FILLER_36_65
*1014 FILLER_36_77
*1015 FILLER_36_83
*1016 FILLER_36_85
*1017 FILLER_36_97
*1018 FILLER_37_105
*1019 FILLER_37_11
*1020 FILLER_37_111
*1021 FILLER_37_113
*1022 FILLER_37_125
*1023 FILLER_37_137
*1024 FILLER_37_149
*1025 FILLER_37_161
*1026 FILLER_37_167
*1027 FILLER_37_169
*1028 FILLER_37_181
*1029 FILLER_37_19
*1030 FILLER_37_193
*1031 FILLER_37_205
*1032 FILLER_37_217
*1033 FILLER_37_223
*1034 FILLER_37_225
*1035 FILLER_37_237
*1036 FILLER_37_249
*1037 FILLER_37_261
*1038 FILLER_37_273
*1039 FILLER_37_279
*1040 FILLER_37_281
*1041 FILLER_37_293
*1042 FILLER_37_3
*1043 FILLER_37_31
*1044 FILLER_37_43
*1045 FILLER_37_55
*1046 FILLER_37_57
*1047 FILLER_37_69
*1048 FILLER_37_81
*1049 FILLER_37_93
*1050 FILLER_38_109
*1051 FILLER_38_121
*1052 FILLER_38_133
*1053 FILLER_38_139
*1054 FILLER_38_141
*1055 FILLER_38_15
*1056 FILLER_38_153
*1057 FILLER_38_165
*1058 FILLER_38_177
*1059 FILLER_38_189
*1060 FILLER_38_195
*1061 FILLER_38_197
*1062 FILLER_38_20
*1063 FILLER_38_209
*1064 FILLER_38_221
*1065 FILLER_38_233
*1066 FILLER_38_245
*1067 FILLER_38_251
*1068 FILLER_38_253
*1069 FILLER_38_265
*1070 FILLER_38_277
*1071 FILLER_38_289
*1072 FILLER_38_29
*1073 FILLER_38_297
*1074 FILLER_38_3
*1075 FILLER_38_41
*1076 FILLER_38_53
*1077 FILLER_38_65
*1078 FILLER_38_77
*1079 FILLER_38_83
*1080 FILLER_38_85
*1081 FILLER_38_97
*1082 FILLER_39_105
*1083 FILLER_39_111
*1084 FILLER_39_113
*1085 FILLER_39_125
*1086 FILLER_39_137
*1087 FILLER_39_149
*1088 FILLER_39_15
*1089 FILLER_39_161
*1090 FILLER_39_167
*1091 FILLER_39_169
*1092 FILLER_39_181
*1093 FILLER_39_193
*1094 FILLER_39_20
*1095 FILLER_39_205
*1096 FILLER_39_217
*1097 FILLER_39_223
*1098 FILLER_39_225
*1099 FILLER_39_237
*1100 FILLER_39_249
*1101 FILLER_39_261
*1102 FILLER_39_273
*1103 FILLER_39_279
*1104 FILLER_39_281
*1105 FILLER_39_293
*1106 FILLER_39_3
*1107 FILLER_39_32
*1108 FILLER_39_44
*1109 FILLER_39_57
*1110 FILLER_39_69
*1111 FILLER_39_81
*1112 FILLER_39_93
*1113 FILLER_3_105
*1114 FILLER_3_111
*1115 FILLER_3_113
*1116 FILLER_3_125
*1117 FILLER_3_137
*1118 FILLER_3_149
*1119 FILLER_3_15
*1120 FILLER_3_161
*1121 FILLER_3_167
*1122 FILLER_3_169
*1123 FILLER_3_181
*1124 FILLER_3_193
*1125 FILLER_3_205
*1126 FILLER_3_217
*1127 FILLER_3_223
*1128 FILLER_3_225
*1129 FILLER_3_237
*1130 FILLER_3_249
*1131 FILLER_3_261
*1132 FILLER_3_27
*1133 FILLER_3_273
*1134 FILLER_3_279
*1135 FILLER_3_281
*1136 FILLER_3_293
*1137 FILLER_3_3
*1138 FILLER_3_39
*1139 FILLER_3_51
*1140 FILLER_3_55
*1141 FILLER_3_57
*1142 FILLER_3_69
*1143 FILLER_3_81
*1144 FILLER_3_93
*1145 FILLER_40_109
*1146 FILLER_40_11
*1147 FILLER_40_121
*1148 FILLER_40_133
*1149 FILLER_40_139
*1150 FILLER_40_141
*1151 FILLER_40_153
*1152 FILLER_40_165
*1153 FILLER_40_17
*1154 FILLER_40_177
*1155 FILLER_40_189
*1156 FILLER_40_195
*1157 FILLER_40_197
*1158 FILLER_40_209
*1159 FILLER_40_221
*1160 FILLER_40_233
*1161 FILLER_40_245
*1162 FILLER_40_25
*1163 FILLER_40_251
*1164 FILLER_40_253
*1165 FILLER_40_265
*1166 FILLER_40_277
*1167 FILLER_40_289
*1168 FILLER_40_29
*1169 FILLER_40_297
*1170 FILLER_40_3
*1171 FILLER_40_41
*1172 FILLER_40_53
*1173 FILLER_40_65
*1174 FILLER_40_77
*1175 FILLER_40_83
*1176 FILLER_40_85
*1177 FILLER_40_97
*1178 FILLER_41_105
*1179 FILLER_41_111
*1180 FILLER_41_113
*1181 FILLER_41_125
*1182 FILLER_41_137
*1183 FILLER_41_149
*1184 FILLER_41_15
*1185 FILLER_41_161
*1186 FILLER_41_167
*1187 FILLER_41_169
*1188 FILLER_41_181
*1189 FILLER_41_193
*1190 FILLER_41_205
*1191 FILLER_41_217
*1192 FILLER_41_223
*1193 FILLER_41_225
*1194 FILLER_41_237
*1195 FILLER_41_249
*1196 FILLER_41_261
*1197 FILLER_41_27
*1198 FILLER_41_273
*1199 FILLER_41_279
*1200 FILLER_41_281
*1201 FILLER_41_293
*1202 FILLER_41_3
*1203 FILLER_41_39
*1204 FILLER_41_51
*1205 FILLER_41_55
*1206 FILLER_41_57
*1207 FILLER_41_69
*1208 FILLER_41_81
*1209 FILLER_41_93
*1210 FILLER_42_109
*1211 FILLER_42_121
*1212 FILLER_42_133
*1213 FILLER_42_139
*1214 FILLER_42_141
*1215 FILLER_42_15
*1216 FILLER_42_153
*1217 FILLER_42_165
*1218 FILLER_42_177
*1219 FILLER_42_189
*1220 FILLER_42_195
*1221 FILLER_42_197
*1222 FILLER_42_209
*1223 FILLER_42_221
*1224 FILLER_42_233
*1225 FILLER_42_245
*1226 FILLER_42_251
*1227 FILLER_42_253
*1228 FILLER_42_265
*1229 FILLER_42_27
*1230 FILLER_42_277
*1231 FILLER_42_289
*1232 FILLER_42_29
*1233 FILLER_42_297
*1234 FILLER_42_3
*1235 FILLER_42_41
*1236 FILLER_42_53
*1237 FILLER_42_65
*1238 FILLER_42_77
*1239 FILLER_42_83
*1240 FILLER_42_85
*1241 FILLER_42_97
*1242 FILLER_43_105
*1243 FILLER_43_111
*1244 FILLER_43_113
*1245 FILLER_43_125
*1246 FILLER_43_137
*1247 FILLER_43_14
*1248 FILLER_43_149
*1249 FILLER_43_161
*1250 FILLER_43_167
*1251 FILLER_43_169
*1252 FILLER_43_181
*1253 FILLER_43_193
*1254 FILLER_43_205
*1255 FILLER_43_217
*1256 FILLER_43_223
*1257 FILLER_43_225
*1258 FILLER_43_237
*1259 FILLER_43_249
*1260 FILLER_43_26
*1261 FILLER_43_261
*1262 FILLER_43_273
*1263 FILLER_43_279
*1264 FILLER_43_281
*1265 FILLER_43_293
*1266 FILLER_43_3
*1267 FILLER_43_38
*1268 FILLER_43_50
*1269 FILLER_43_57
*1270 FILLER_43_69
*1271 FILLER_43_81
*1272 FILLER_43_9
*1273 FILLER_43_93
*1274 FILLER_44_109
*1275 FILLER_44_121
*1276 FILLER_44_133
*1277 FILLER_44_139
*1278 FILLER_44_141
*1279 FILLER_44_15
*1280 FILLER_44_153
*1281 FILLER_44_165
*1282 FILLER_44_177
*1283 FILLER_44_189
*1284 FILLER_44_195
*1285 FILLER_44_197
*1286 FILLER_44_209
*1287 FILLER_44_221
*1288 FILLER_44_233
*1289 FILLER_44_245
*1290 FILLER_44_251
*1291 FILLER_44_253
*1292 FILLER_44_265
*1293 FILLER_44_27
*1294 FILLER_44_277
*1295 FILLER_44_289
*1296 FILLER_44_29
*1297 FILLER_44_297
*1298 FILLER_44_3
*1299 FILLER_44_41
*1300 FILLER_44_53
*1301 FILLER_44_65
*1302 FILLER_44_77
*1303 FILLER_44_83
*1304 FILLER_44_85
*1305 FILLER_44_97
*1306 FILLER_45_105
*1307 FILLER_45_111
*1308 FILLER_45_113
*1309 FILLER_45_125
*1310 FILLER_45_137
*1311 FILLER_45_149
*1312 FILLER_45_15
*1313 FILLER_45_161
*1314 FILLER_45_167
*1315 FILLER_45_169
*1316 FILLER_45_181
*1317 FILLER_45_193
*1318 FILLER_45_205
*1319 FILLER_45_217
*1320 FILLER_45_223
*1321 FILLER_45_225
*1322 FILLER_45_237
*1323 FILLER_45_249
*1324 FILLER_45_261
*1325 FILLER_45_27
*1326 FILLER_45_273
*1327 FILLER_45_279
*1328 FILLER_45_281
*1329 FILLER_45_293
*1330 FILLER_45_3
*1331 FILLER_45_39
*1332 FILLER_45_51
*1333 FILLER_45_55
*1334 FILLER_45_57
*1335 FILLER_45_69
*1336 FILLER_45_81
*1337 FILLER_45_93
*1338 FILLER_46_109
*1339 FILLER_46_121
*1340 FILLER_46_133
*1341 FILLER_46_139
*1342 FILLER_46_14
*1343 FILLER_46_141
*1344 FILLER_46_153
*1345 FILLER_46_165
*1346 FILLER_46_177
*1347 FILLER_46_189
*1348 FILLER_46_195
*1349 FILLER_46_197
*1350 FILLER_46_209
*1351 FILLER_46_221
*1352 FILLER_46_233
*1353 FILLER_46_245
*1354 FILLER_46_251
*1355 FILLER_46_253
*1356 FILLER_46_26
*1357 FILLER_46_265
*1358 FILLER_46_277
*1359 FILLER_46_289
*1360 FILLER_46_29
*1361 FILLER_46_297
*1362 FILLER_46_3
*1363 FILLER_46_41
*1364 FILLER_46_53
*1365 FILLER_46_65
*1366 FILLER_46_77
*1367 FILLER_46_83
*1368 FILLER_46_85
*1369 FILLER_46_9
*1370 FILLER_46_97
*1371 FILLER_47_105
*1372 FILLER_47_111
*1373 FILLER_47_113
*1374 FILLER_47_125
*1375 FILLER_47_137
*1376 FILLER_47_149
*1377 FILLER_47_15
*1378 FILLER_47_161
*1379 FILLER_47_167
*1380 FILLER_47_169
*1381 FILLER_47_181
*1382 FILLER_47_193
*1383 FILLER_47_205
*1384 FILLER_47_217
*1385 FILLER_47_223
*1386 FILLER_47_225
*1387 FILLER_47_237
*1388 FILLER_47_249
*1389 FILLER_47_261
*1390 FILLER_47_27
*1391 FILLER_47_273
*1392 FILLER_47_279
*1393 FILLER_47_281
*1394 FILLER_47_293
*1395 FILLER_47_3
*1396 FILLER_47_39
*1397 FILLER_47_51
*1398 FILLER_47_55
*1399 FILLER_47_57
*1400 FILLER_47_69
*1401 FILLER_47_81
*1402 FILLER_47_93
*1403 FILLER_48_109
*1404 FILLER_48_121
*1405 FILLER_48_133
*1406 FILLER_48_139
*1407 FILLER_48_141
*1408 FILLER_48_15
*1409 FILLER_48_153
*1410 FILLER_48_165
*1411 FILLER_48_177
*1412 FILLER_48_189
*1413 FILLER_48_195
*1414 FILLER_48_197
*1415 FILLER_48_209
*1416 FILLER_48_221
*1417 FILLER_48_233
*1418 FILLER_48_245
*1419 FILLER_48_251
*1420 FILLER_48_253
*1421 FILLER_48_265
*1422 FILLER_48_27
*1423 FILLER_48_277
*1424 FILLER_48_289
*1425 FILLER_48_29
*1426 FILLER_48_297
*1427 FILLER_48_3
*1428 FILLER_48_41
*1429 FILLER_48_53
*1430 FILLER_48_65
*1431 FILLER_48_77
*1432 FILLER_48_83
*1433 FILLER_48_85
*1434 FILLER_48_97
*1435 FILLER_49_105
*1436 FILLER_49_111
*1437 FILLER_49_113
*1438 FILLER_49_125
*1439 FILLER_49_137
*1440 FILLER_49_149
*1441 FILLER_49_15
*1442 FILLER_49_161
*1443 FILLER_49_167
*1444 FILLER_49_169
*1445 FILLER_49_181
*1446 FILLER_49_193
*1447 FILLER_49_205
*1448 FILLER_49_217
*1449 FILLER_49_223
*1450 FILLER_49_225
*1451 FILLER_49_237
*1452 FILLER_49_249
*1453 FILLER_49_261
*1454 FILLER_49_27
*1455 FILLER_49_273
*1456 FILLER_49_279
*1457 FILLER_49_281
*1458 FILLER_49_293
*1459 FILLER_49_3
*1460 FILLER_49_39
*1461 FILLER_49_51
*1462 FILLER_49_55
*1463 FILLER_49_57
*1464 FILLER_49_69
*1465 FILLER_49_81
*1466 FILLER_49_93
*1467 FILLER_4_109
*1468 FILLER_4_121
*1469 FILLER_4_133
*1470 FILLER_4_139
*1471 FILLER_4_141
*1472 FILLER_4_15
*1473 FILLER_4_153
*1474 FILLER_4_165
*1475 FILLER_4_177
*1476 FILLER_4_189
*1477 FILLER_4_195
*1478 FILLER_4_197
*1479 FILLER_4_209
*1480 FILLER_4_221
*1481 FILLER_4_233
*1482 FILLER_4_245
*1483 FILLER_4_251
*1484 FILLER_4_253
*1485 FILLER_4_265
*1486 FILLER_4_27
*1487 FILLER_4_277
*1488 FILLER_4_289
*1489 FILLER_4_29
*1490 FILLER_4_297
*1491 FILLER_4_3
*1492 FILLER_4_41
*1493 FILLER_4_53
*1494 FILLER_4_65
*1495 FILLER_4_77
*1496 FILLER_4_83
*1497 FILLER_4_85
*1498 FILLER_4_97
*1499 FILLER_50_109
*1500 FILLER_50_121
*1501 FILLER_50_133
*1502 FILLER_50_139
*1503 FILLER_50_141
*1504 FILLER_50_15
*1505 FILLER_50_153
*1506 FILLER_50_165
*1507 FILLER_50_177
*1508 FILLER_50_189
*1509 FILLER_50_195
*1510 FILLER_50_197
*1511 FILLER_50_209
*1512 FILLER_50_221
*1513 FILLER_50_233
*1514 FILLER_50_245
*1515 FILLER_50_251
*1516 FILLER_50_253
*1517 FILLER_50_265
*1518 FILLER_50_27
*1519 FILLER_50_277
*1520 FILLER_50_289
*1521 FILLER_50_29
*1522 FILLER_50_297
*1523 FILLER_50_3
*1524 FILLER_50_41
*1525 FILLER_50_53
*1526 FILLER_50_65
*1527 FILLER_50_77
*1528 FILLER_50_83
*1529 FILLER_50_85
*1530 FILLER_50_97
*1531 FILLER_51_105
*1532 FILLER_51_111
*1533 FILLER_51_113
*1534 FILLER_51_125
*1535 FILLER_51_137
*1536 FILLER_51_149
*1537 FILLER_51_15
*1538 FILLER_51_161
*1539 FILLER_51_167
*1540 FILLER_51_169
*1541 FILLER_51_181
*1542 FILLER_51_193
*1543 FILLER_51_205
*1544 FILLER_51_217
*1545 FILLER_51_223
*1546 FILLER_51_225
*1547 FILLER_51_237
*1548 FILLER_51_249
*1549 FILLER_51_261
*1550 FILLER_51_27
*1551 FILLER_51_273
*1552 FILLER_51_279
*1553 FILLER_51_281
*1554 FILLER_51_293
*1555 FILLER_51_3
*1556 FILLER_51_39
*1557 FILLER_51_51
*1558 FILLER_51_55
*1559 FILLER_51_57
*1560 FILLER_51_69
*1561 FILLER_51_81
*1562 FILLER_51_93
*1563 FILLER_52_109
*1564 FILLER_52_121
*1565 FILLER_52_133
*1566 FILLER_52_139
*1567 FILLER_52_141
*1568 FILLER_52_15
*1569 FILLER_52_153
*1570 FILLER_52_165
*1571 FILLER_52_177
*1572 FILLER_52_189
*1573 FILLER_52_195
*1574 FILLER_52_197
*1575 FILLER_52_209
*1576 FILLER_52_221
*1577 FILLER_52_233
*1578 FILLER_52_245
*1579 FILLER_52_251
*1580 FILLER_52_253
*1581 FILLER_52_265
*1582 FILLER_52_27
*1583 FILLER_52_277
*1584 FILLER_52_289
*1585 FILLER_52_29
*1586 FILLER_52_297
*1587 FILLER_52_3
*1588 FILLER_52_41
*1589 FILLER_52_53
*1590 FILLER_52_65
*1591 FILLER_52_77
*1592 FILLER_52_83
*1593 FILLER_52_85
*1594 FILLER_52_97
*1595 FILLER_53_105