*SPEF "ieee 1481-1999"
*DESIGN "user_module_362911430638568449"
*DATE "11:11:11 Fri 11 11, 1111"
*VENDOR "OpenRCX"
*PROGRAM "Parallel Extraction"
*VERSION "1.0"
*DESIGN_FLOW "NAME_SCOPE LOCAL" "PIN_CAP NONE"
*DIVIDER /
*DELIMITER :
*BUS_DELIMITER []
*T_UNIT 1 NS
*C_UNIT 1 PF
*R_UNIT 1 OHM
*L_UNIT 1 HENRY

*NAME_MAP
*1 io_in[0]
*2 io_in[1]
*3 io_in[2]
*4 io_in[3]
*5 io_in[4]
*6 io_in[5]
*7 io_in[6]
*8 io_in[7]
*9 io_out[0]
*10 io_out[1]
*11 net3
*12 net4
*13 net5
*14 net6
*15 net7
*16 io_out[7]
*19 _000_
*20 _001_
*21 _002_
*22 _003_
*23 _004_
*24 _005_
*25 _006_
*26 _007_
*27 _008_
*28 _009_
*29 _010_
*30 _011_
*31 _012_
*32 _013_
*33 _014_
*34 _015_
*35 _016_
*36 _017_
*37 _018_
*38 _019_
*39 _020_
*40 _021_
*41 _022_
*42 _023_
*43 _024_
*44 _025_
*45 _026_
*46 _027_
*47 _028_
*48 _029_
*49 _030_
*50 _031_
*51 _032_
*52 _033_
*53 _034_
*54 _035_
*55 _036_
*56 _037_
*57 _038_
*58 _039_
*59 _040_
*60 _041_
*61 _042_
*62 _043_
*63 _044_
*64 _045_
*65 _046_
*66 _047_
*67 _048_
*68 _049_
*69 _050_
*70 _051_
*71 _052_
*72 _053_
*73 _054_
*74 _055_
*75 _056_
*76 _057_
*77 _058_
*78 _059_
*79 _060_
*80 _061_
*81 _062_
*82 _063_
*83 _064_
*84 _065_
*85 _066_
*86 _067_
*87 _068_
*88 _069_
*89 _070_
*90 _071_
*91 _072_
*92 _073_
*93 _074_
*94 _075_
*95 _076_
*96 _077_
*97 _078_
*98 _079_
*99 _080_
*100 _081_
*101 _082_
*102 _083_
*103 _084_
*104 _085_
*105 _086_
*106 _087_
*107 _088_
*108 _089_
*109 _090_
*110 _091_
*111 _092_
*112 _093_
*113 _094_
*114 _095_
*115 _096_
*116 _097_
*117 _098_
*118 _099_
*119 _100_
*120 _101_
*121 _102_
*122 _103_
*123 _104_
*124 _105_
*125 _106_
*126 _107_
*127 _108_
*128 _109_
*129 _110_
*130 _111_
*131 _112_
*132 _113_
*133 _114_
*134 _115_
*135 _116_
*136 _117_
*137 _118_
*138 _119_
*139 _120_
*140 _121_
*141 _122_
*142 _123_
*143 _124_
*144 _125_
*145 _126_
*146 _127_
*147 _128_
*148 _129_
*149 _130_
*150 _131_
*151 _132_
*152 _133_
*153 _134_
*154 _135_
*155 _136_
*156 _137_
*157 _138_
*158 _139_
*159 _140_
*160 _141_
*161 _142_
*162 _143_
*163 _144_
*164 _145_
*165 _146_
*166 _147_
*167 _148_
*168 _149_
*169 _150_
*170 _151_
*171 _152_
*172 _153_
*173 _154_
*174 _155_
*175 _156_
*176 _157_
*177 _158_
*178 _159_
*179 _160_
*180 _161_
*181 _162_
*182 _163_
*183 _164_
*184 _165_
*185 _166_
*186 _167_
*187 _168_
*188 _169_
*189 _170_
*190 _171_
*191 _172_
*192 _173_
*193 _174_
*194 _175_
*195 _176_
*196 _177_
*197 _178_
*198 _179_
*199 _180_
*200 _181_
*201 _182_
*202 _183_
*203 _184_
*204 _185_
*205 _186_
*206 _187_
*207 _188_
*208 _189_
*209 _190_
*210 _191_
*211 _192_
*212 _193_
*213 _194_
*214 _195_
*215 _196_
*216 _197_
*217 _198_
*218 _199_
*219 _200_
*220 _201_
*221 _202_
*222 _203_
*223 _204_
*224 _205_
*225 _206_
*226 _207_
*227 _208_
*228 _209_
*229 _210_
*230 _211_
*231 _212_
*232 _213_
*233 _214_
*234 _215_
*235 _216_
*236 _217_
*237 _218_
*238 _219_
*239 _220_
*240 clknet_0_io_in[0]
*241 clknet_3_0__leaf_io_in[0]
*242 clknet_3_1__leaf_io_in[0]
*243 clknet_3_2__leaf_io_in[0]
*244 clknet_3_3__leaf_io_in[0]
*245 clknet_3_4__leaf_io_in[0]
*246 clknet_3_5__leaf_io_in[0]
*247 clknet_3_6__leaf_io_in[0]
*248 clknet_3_7__leaf_io_in[0]
*249 flop1\.q
*250 flop10\.q
*251 flop100\.q
*252 flop101\.q
*253 flop102\.q
*254 flop103\.q
*255 flop104\.q
*256 flop105\.q
*257 flop11\.q
*258 flop12\.q
*259 flop13\.q
*260 flop14\.q
*261 flop15\.q
*262 flop16\.q
*263 flop17\.q
*264 flop18\.q
*265 flop19\.q
*266 flop2\.q
*267 flop20\.q
*268 flop21\.q
*269 flop22\.q
*270 flop23\.q
*271 flop24\.q
*272 flop25\.q
*273 flop26\.q
*274 flop27\.q
*275 flop28\.q
*276 flop29\.q
*277 flop3\.q
*278 flop30\.q
*279 flop31\.q
*280 flop32\.q
*281 flop33\.q
*282 flop34\.q
*283 flop35\.q
*284 flop36\.q
*285 flop37\.q
*286 flop38\.q
*287 flop39\.q
*288 flop4\.q
*289 flop40\.q
*290 flop41\.q
*291 flop42\.q
*292 flop43\.q
*293 flop44\.q
*294 flop45\.q
*295 flop46\.q
*296 flop47\.q
*297 flop48\.q
*298 flop49\.q
*299 flop5\.q
*300 flop50\.q
*301 flop51\.q
*302 flop52\.q
*303 flop53\.q
*304 flop54\.q
*305 flop55\.q
*306 flop56\.q
*307 flop57\.q
*308 flop58\.q
*309 flop59\.q
*310 flop6\.q
*311 flop60\.q
*312 flop61\.q
*313 flop62\.q
*314 flop63\.q
*315 flop64\.q
*316 flop65\.q
*317 flop66\.q
*318 flop67\.q
*319 flop68\.q
*320 flop69\.q
*321 flop7\.q
*322 flop70\.q
*323 flop71\.q
*324 flop72\.q
*325 flop73\.q
*326 flop74\.q
*327 flop75\.q
*328 flop76\.q
*329 flop77\.q
*330 flop78\.q
*331 flop79\.q
*332 flop8\.q
*333 flop80\.q
*334 flop81\.q
*335 flop82\.q
*336 flop83\.q
*337 flop84\.q
*338 flop85\.q
*339 flop86\.q
*340 flop87\.q
*341 flop88\.q
*342 flop89\.q
*343 flop9\.q
*344 flop90\.q
*345 flop91\.q
*346 flop92\.q
*347 flop93\.q
*348 flop94\.q
*349 flop95\.q
*350 flop96\.q
*351 flop97\.q
*352 flop98\.q
*353 flop99\.q
*354 mux102\.b
*355 net1
*356 net2
*357 FILLER_0_106
*358 FILLER_0_113
*359 FILLER_0_131
*360 FILLER_0_138
*361 FILLER_0_141
*362 FILLER_0_146
*363 FILLER_0_15
*364 FILLER_0_158
*365 FILLER_0_166
*366 FILLER_0_169
*367 FILLER_0_181
*368 FILLER_0_193
*369 FILLER_0_197
*370 FILLER_0_209
*371 FILLER_0_221
*372 FILLER_0_225
*373 FILLER_0_237
*374 FILLER_0_249
*375 FILLER_0_253
*376 FILLER_0_265
*377 FILLER_0_27
*378 FILLER_0_277
*379 FILLER_0_281
*380 FILLER_0_29
*381 FILLER_0_293
*382 FILLER_0_3
*383 FILLER_0_33
*384 FILLER_0_37
*385 FILLER_0_49
*386 FILLER_0_55
*387 FILLER_0_57
*388 FILLER_0_69
*389 FILLER_0_81
*390 FILLER_0_85
*391 FILLER_0_96
*392 FILLER_10_106
*393 FILLER_10_126
*394 FILLER_10_138
*395 FILLER_10_141
*396 FILLER_10_15
*397 FILLER_10_159
*398 FILLER_10_171
*399 FILLER_10_183
*400 FILLER_10_195
*401 FILLER_10_197
*402 FILLER_10_209
*403 FILLER_10_221
*404 FILLER_10_233
*405 FILLER_10_245
*406 FILLER_10_251
*407 FILLER_10_253
*408 FILLER_10_26
*409 FILLER_10_265
*410 FILLER_10_277
*411 FILLER_10_289
*412 FILLER_10_29
*413 FILLER_10_297
*414 FILLER_10_3
*415 FILLER_10_36
*416 FILLER_10_48
*417 FILLER_10_65
*418 FILLER_10_75
*419 FILLER_10_8
*420 FILLER_10_82
*421 FILLER_10_85
*422 FILLER_10_91
*423 FILLER_10_97
*424 FILLER_11_101
*425 FILLER_11_108
*426 FILLER_11_113
*427 FILLER_11_123
*428 FILLER_11_143
*429 FILLER_11_149
*430 FILLER_11_166
*431 FILLER_11_169
*432 FILLER_11_174
*433 FILLER_11_186
*434 FILLER_11_198
*435 FILLER_11_21
*436 FILLER_11_210
*437 FILLER_11_222
*438 FILLER_11_225
*439 FILLER_11_237
*440 FILLER_11_249
*441 FILLER_11_261
*442 FILLER_11_273
*443 FILLER_11_279
*444 FILLER_11_28
*445 FILLER_11_281
*446 FILLER_11_293
*447 FILLER_11_3
*448 FILLER_11_36
*449 FILLER_11_40
*450 FILLER_11_47
*451 FILLER_11_54
*452 FILLER_11_57
*453 FILLER_11_81
*454 FILLER_12_116
*455 FILLER_12_126
*456 FILLER_12_134
*457 FILLER_12_141
*458 FILLER_12_146
*459 FILLER_12_154
*460 FILLER_12_161
*461 FILLER_12_173
*462 FILLER_12_185
*463 FILLER_12_193
*464 FILLER_12_197
*465 FILLER_12_209
*466 FILLER_12_221
*467 FILLER_12_233
*468 FILLER_12_245
*469 FILLER_12_25
*470 FILLER_12_251
*471 FILLER_12_253
*472 FILLER_12_265
*473 FILLER_12_277
*474 FILLER_12_289
*475 FILLER_12_29
*476 FILLER_12_297
*477 FILLER_12_3
*478 FILLER_12_38
*479 FILLER_12_52
*480 FILLER_12_60
*481 FILLER_12_67
*482 FILLER_12_71
*483 FILLER_12_75
*484 FILLER_12_82
*485 FILLER_12_85
*486 FILLER_12_92
*487 FILLER_13_105
*488 FILLER_13_111
*489 FILLER_13_113
*490 FILLER_13_118
*491 FILLER_13_128
*492 FILLER_13_14
*493 FILLER_13_140
*494 FILLER_13_151
*495 FILLER_13_161
*496 FILLER_13_167
*497 FILLER_13_169
*498 FILLER_13_181
*499 FILLER_13_193
*500 FILLER_13_205
*501 FILLER_13_217
*502 FILLER_13_223
*503 FILLER_13_225
*504 FILLER_13_237
*505 FILLER_13_249
*506 FILLER_13_261
*507 FILLER_13_273
*508 FILLER_13_279
*509 FILLER_13_281
*510 FILLER_13_293
*511 FILLER_13_3
*512 FILLER_13_34
*513 FILLER_13_54
*514 FILLER_13_57
*515 FILLER_13_65
*516 FILLER_13_7
*517 FILLER_13_85
*518 FILLER_14_117
*519 FILLER_14_121
*520 FILLER_14_138
*521 FILLER_14_141
*522 FILLER_14_147
*523 FILLER_14_164
*524 FILLER_14_176
*525 FILLER_14_188
*526 FILLER_14_197
*527 FILLER_14_209
*528 FILLER_14_21
*529 FILLER_14_221
*530 FILLER_14_233
*531 FILLER_14_245
*532 FILLER_14_251
*533 FILLER_14_253
*534 FILLER_14_265
*535 FILLER_14_27
*536 FILLER_14_277
*537 FILLER_14_289
*538 FILLER_14_29
*539 FILLER_14_297
*540 FILLER_14_3
*541 FILLER_14_36
*542 FILLER_14_45
*543 FILLER_14_52
*544 FILLER_14_72
*545 FILLER_14_81
*546 FILLER_14_85
*547 FILLER_14_97
*548 FILLER_15_106
*549 FILLER_15_113
*550 FILLER_15_131
*551 FILLER_15_138
*552 FILLER_15_14
*553 FILLER_15_158
*554 FILLER_15_165
*555 FILLER_15_169
*556 FILLER_15_181
*557 FILLER_15_193
*558 FILLER_15_205
*559 FILLER_15_217
*560 FILLER_15_223
*561 FILLER_15_225
*562 FILLER_15_237
*563 FILLER_15_249
*564 FILLER_15_261
*565 FILLER_15_273
*566 FILLER_15_279
*567 FILLER_15_281
*568 FILLER_15_293
*569 FILLER_15_3
*570 FILLER_15_34
*571 FILLER_15_54
*572 FILLER_15_57
*573 FILLER_15_65
*574 FILLER_15_69
*575 FILLER_15_73
*576 FILLER_15_82
*577 FILLER_16_121
*578 FILLER_16_131
*579 FILLER_16_138
*580 FILLER_16_141
*581 FILLER_16_149
*582 FILLER_16_159
*583 FILLER_16_16
*584 FILLER_16_166
*585 FILLER_16_178
*586 FILLER_16_190
*587 FILLER_16_197
*588 FILLER_16_209
*589 FILLER_16_22
*590 FILLER_16_221
*591 FILLER_16_233
*592 FILLER_16_245
*593 FILLER_16_251
*594 FILLER_16_253
*595 FILLER_16_26
*596 FILLER_16_265
*597 FILLER_16_277
*598 FILLER_16_289
*599 FILLER_16_29
*600 FILLER_16_297
*601 FILLER_16_3
*602 FILLER_16_37
*603 FILLER_16_65
*604 FILLER_16_74
*605 FILLER_16_78
*606 FILLER_16_82
*607 FILLER_16_85
*608 FILLER_16_9
*609 FILLER_16_97
*610 FILLER_17_106
*611 FILLER_17_113
*612 FILLER_17_121
*613 FILLER_17_125
*614 FILLER_17_142
*615 FILLER_17_148
*616 FILLER_17_165
*617 FILLER_17_169
*618 FILLER_17_17
*619 FILLER_17_181
*620 FILLER_17_193
*621 FILLER_17_205
*622 FILLER_17_217
*623 FILLER_17_223
*624 FILLER_17_225
*625 FILLER_17_23
*626 FILLER_17_237
*627 FILLER_17_249
*628 FILLER_17_261
*629 FILLER_17_27
*630 FILLER_17_273
*631 FILLER_17_279
*632 FILLER_17_281
*633 FILLER_17_293
*634 FILLER_17_3
*635 FILLER_17_47
*636 FILLER_17_54
*637 FILLER_17_57
*638 FILLER_17_75
*639 FILLER_17_95
*640 FILLER_18_100
*641 FILLER_18_117
*642 FILLER_18_127
*643 FILLER_18_135
*644 FILLER_18_139
*645 FILLER_18_141
*646 FILLER_18_149
*647 FILLER_18_163
*648 FILLER_18_175
*649 FILLER_18_187
*650 FILLER_18_195
*651 FILLER_18_197
*652 FILLER_18_209
*653 FILLER_18_21
*654 FILLER_18_221
*655 FILLER_18_233
*656 FILLER_18_245
*657 FILLER_18_251
*658 FILLER_18_253
*659 FILLER_18_265
*660 FILLER_18_27
*661 FILLER_18_277
*662 FILLER_18_289
*663 FILLER_18_29
*664 FILLER_18_297
*665 FILLER_18_3
*666 FILLER_18_35
*667 FILLER_18_42
*668 FILLER_18_62
*669 FILLER_18_82
*670 FILLER_18_85
*671 FILLER_18_92
*672 FILLER_19_101
*673 FILLER_19_110
*674 FILLER_19_113
*675 FILLER_19_120
*676 FILLER_19_140
*677 FILLER_19_148
*678 FILLER_19_15
*679 FILLER_19_165
*680 FILLER_19_169
*681 FILLER_19_174
*682 FILLER_19_186
*683 FILLER_19_198
*684 FILLER_19_210
*685 FILLER_19_222
*686 FILLER_19_225
*687 FILLER_19_237
*688 FILLER_19_249
*689 FILLER_19_261
*690 FILLER_19_273
*691 FILLER_19_279
*692 FILLER_19_281
*693 FILLER_19_293
*694 FILLER_19_3
*695 FILLER_19_35
*696 FILLER_19_49
*697 FILLER_19_55
*698 FILLER_19_57
*699 FILLER_19_64
*700 FILLER_19_71
*701 FILLER_19_8
*702 FILLER_19_81
*703 FILLER_1_109
*704 FILLER_1_113
*705 FILLER_1_118
*706 FILLER_1_138
*707 FILLER_1_15
*708 FILLER_1_150
*709 FILLER_1_162
*710 FILLER_1_169
*711 FILLER_1_181
*712 FILLER_1_193
*713 FILLER_1_205
*714 FILLER_1_217
*715 FILLER_1_223
*716 FILLER_1_225
*717 FILLER_1_237
*718 FILLER_1_249
*719 FILLER_1_261
*720 FILLER_1_27
*721 FILLER_1_273
*722 FILLER_1_279
*723 FILLER_1_281
*724 FILLER_1_293
*725 FILLER_1_3
*726 FILLER_1_47
*727 FILLER_1_54
*728 FILLER_1_57
*729 FILLER_1_75
*730 FILLER_1_87
*731 FILLER_20_100
*732 FILLER_20_107
*733 FILLER_20_127
*734 FILLER_20_134
*735 FILLER_20_141
*736 FILLER_20_146
*737 FILLER_20_158
*738 FILLER_20_165
*739 FILLER_20_177
*740 FILLER_20_189
*741 FILLER_20_195
*742 FILLER_20_197
*743 FILLER_20_209
*744 FILLER_20_21
*745 FILLER_20_221
*746 FILLER_20_233
*747 FILLER_20_245
*748 FILLER_20_251
*749 FILLER_20_253
*750 FILLER_20_265
*751 FILLER_20_27
*752 FILLER_20_277
*753 FILLER_20_289
*754 FILLER_20_29
*755 FILLER_20_297
*756 FILLER_20_3
*757 FILLER_20_37
*758 FILLER_20_43
*759 FILLER_20_60
*760 FILLER_20_82
*761 FILLER_20_85
*762 FILLER_20_89
*763 FILLER_20_94
*764 FILLER_21_103
*765 FILLER_21_110
*766 FILLER_21_113
*767 FILLER_21_131
*768 FILLER_21_151
*769 FILLER_21_157
*770 FILLER_21_161
*771 FILLER_21_167
*772 FILLER_21_169
*773 FILLER_21_181
*774 FILLER_21_193
*775 FILLER_21_205
*776 FILLER_21_217
*777 FILLER_21_223
*778 FILLER_21_225
*779 FILLER_21_237
*780 FILLER_21_249
*781 FILLER_21_261
*782 FILLER_21_273
*783 FILLER_21_279
*784 FILLER_21_28
*785 FILLER_21_281
*786 FILLER_21_293
*787 FILLER_21_3
*788 FILLER_21_48
*789 FILLER_21_57
*790 FILLER_21_63
*791 FILLER_21_69
*792 FILLER_21_77
*793 FILLER_21_8
*794 FILLER_21_83
*795 FILLER_22_121
*796 FILLER_22_131
*797 FILLER_22_139
*798 FILLER_22_141
*799 FILLER_22_147
*800 FILLER_22_167
*801 FILLER_22_17
*802 FILLER_22_177
*803 FILLER_22_189
*804 FILLER_22_195
*805 FILLER_22_197
*806 FILLER_22_209
*807 FILLER_22_221
*808 FILLER_22_233
*809 FILLER_22_245
*810 FILLER_22_25
*811 FILLER_22_251
*812 FILLER_22_253
*813 FILLER_22_265
*814 FILLER_22_277
*815 FILLER_22_289
*816 FILLER_22_29
*817 FILLER_22_297
*818 FILLER_22_3
*819 FILLER_22_35
*820 FILLER_22_43
*821 FILLER_22_65
*822 FILLER_22_73
*823 FILLER_22_82
*824 FILLER_22_85
*825 FILLER_22_90
*826 FILLER_22_97
*827 FILLER_23_110
*828 FILLER_23_113
*829 FILLER_23_119
*830 FILLER_23_126
*831 FILLER_23_146
*832 FILLER_23_166
*833 FILLER_23_169
*834 FILLER_23_18
*835 FILLER_23_181
*836 FILLER_23_193
*837 FILLER_23_205
*838 FILLER_23_217
*839 FILLER_23_223
*840 FILLER_23_225
*841 FILLER_23_237
*842 FILLER_23_249
*843 FILLER_23_26
*844 FILLER_23_261
*845 FILLER_23_273
*846 FILLER_23_279
*847 FILLER_23_281
*848 FILLER_23_293
*849 FILLER_23_3
*850 FILLER_23_34
*851 FILLER_23_46
*852 FILLER_23_53
*853 FILLER_23_57
*854 FILLER_23_62
*855 FILLER_23_8
*856 FILLER_23_82
*857 FILLER_23_86
*858 FILLER_23_90
*859 FILLER_24_116
*860 FILLER_24_124
*861 FILLER_24_132
*862 FILLER_24_137
*863 FILLER_24_141
*864 FILLER_24_151
*865 FILLER_24_159
*866 FILLER_24_164
*867 FILLER_24_176
*868 FILLER_24_188
*869 FILLER_24_197
*870 FILLER_24_209
*871 FILLER_24_221
*872 FILLER_24_233
*873 FILLER_24_245
*874 FILLER_24_251
*875 FILLER_24_253
*876 FILLER_24_26
*877 FILLER_24_265
*878 FILLER_24_277
*879 FILLER_24_289
*880 FILLER_24_29
*881 FILLER_24_297
*882 FILLER_24_3
*883 FILLER_24_47
*884 FILLER_24_67
*885 FILLER_24_71
*886 FILLER_24_75
*887 FILLER_24_82
*888 FILLER_24_85
*889 FILLER_24_9
*890 FILLER_24_94
*891 FILLER_25_107
*892 FILLER_25_111
*893 FILLER_25_113
*894 FILLER_25_119
*895 FILLER_25_129
*896 FILLER_25_149
*897 FILLER_25_156
*898 FILLER_25_169
*899 FILLER_25_181
*900 FILLER_25_193
*901 FILLER_25_205
*902 FILLER_25_21
*903 FILLER_25_217
*904 FILLER_25_223
*905 FILLER_25_225
*906 FILLER_25_237
*907 FILLER_25_249
*908 FILLER_25_25
*909 FILLER_25_261
*910 FILLER_25_273
*911 FILLER_25_279
*912 FILLER_25_281
*913 FILLER_25_29
*914 FILLER_25_293
*915 FILLER_25_3
*916 FILLER_25_36
*917 FILLER_25_43
*918 FILLER_25_54
*919 FILLER_25_57
*920 FILLER_25_63
*921 FILLER_25_68
*922 FILLER_25_76
*923 FILLER_25_94
*924 FILLER_26_102
*925 FILLER_26_122
*926 FILLER_26_132
*927 FILLER_26_141
*928 FILLER_26_146
*929 FILLER_26_166
*930 FILLER_26_176
*931 FILLER_26_188
*932 FILLER_26_197
*933 FILLER_26_209
*934 FILLER_26_221
*935 FILLER_26_23
*936 FILLER_26_233
*937 FILLER_26_245
*938 FILLER_26_251
*939 FILLER_26_253
*940 FILLER_26_265
*941 FILLER_26_27
*942 FILLER_26_277
*943 FILLER_26_289
*944 FILLER_26_29
*945 FILLER_26_297
*946 FILLER_26_3
*947 FILLER_26_35
*948 FILLER_26_57
*949 FILLER_26_66
*950 FILLER_26_75
*951 FILLER_26_82
*952 FILLER_26_85
*953 FILLER_26_9
*954 FILLER_26_92
*955 FILLER_27_102
*956 FILLER_27_106
*957 FILLER_27_110
*958 FILLER_27_113
*959 FILLER_27_135
*960 FILLER_27_139
*961 FILLER_27_143
*962 FILLER_27_153
*963 FILLER_27_161
*964 FILLER_27_165
*965 FILLER_27_169
*966 FILLER_27_181
*967 FILLER_27_193
*968 FILLER_27_205
*969 FILLER_27_217
*970 FILLER_27_223
*971 FILLER_27_225
*972 FILLER_27_237
*973 FILLER_27_249
*974 FILLER_27_26
*975 FILLER_27_261
*976 FILLER_27_273
*977 FILLER_27_279
*978 FILLER_27_281
*979 FILLER_27_293
*980 FILLER_27_3
*981 FILLER_27_38
*982 FILLER_27_47
*983 FILLER_27_54
*984 FILLER_27_57
*985 FILLER_27_62
*986 FILLER_27_82
*987 FILLER_27_9
*988 FILLER_28_106
*989 FILLER_28_112
*990 FILLER_28_119
*991 FILLER_28_127
*992 FILLER_28_134
*993 FILLER_28_141
*994 FILLER_28_159
*995 FILLER_28_169
*996 FILLER_28_176
*997 FILLER_28_188
*998 FILLER_28_197
*999 FILLER_28_209
*1000 FILLER_28_21
*1001 FILLER_28_221
*1002 FILLER_28_233
*1003 FILLER_28_245
*1004 FILLER_28_251
*1005 FILLER_28_253
*1006 FILLER_28_265
*1007 FILLER_28_27
*1008 FILLER_28_277
*1009 FILLER_28_289
*1010 FILLER_28_29
*1011 FILLER_28_297
*1012 FILLER_28_3
*1013 FILLER_28_47
*1014 FILLER_28_53
*1015 FILLER_28_70
*1016 FILLER_28_81
*1017 FILLER_28_85
*1018 FILLER_28_92
*1019 FILLER_28_99
*1020 FILLER_29_102
*1021 FILLER_29_109
*1022 FILLER_29_11
*1023 FILLER_29_113
*1024 FILLER_29_117
*1025 FILLER_29_124
*1026 FILLER_29_146
*1027 FILLER_29_166
*1028 FILLER_29_169
*1029 FILLER_29_18
*1030 FILLER_29_181
*1031 FILLER_29_193
*1032 FILLER_29_205
*1033 FILLER_29_217
*1034 FILLER_29_22
*1035 FILLER_29_223
*1036 FILLER_29_225
*1037 FILLER_29_237
*1038 FILLER_29_249
*1039 FILLER_29_261
*1040 FILLER_29_273
*1041 FILLER_29_279
*1042 FILLER_29_281
*1043 FILLER_29_293
*1044 FILLER_29_3
*1045 FILLER_29_39
*1046 FILLER_29_47
*1047 FILLER_29_54
*1048 FILLER_29_57
*1049 FILLER_29_61
*1050 FILLER_29_78
*1051 FILLER_29_98
*1052 FILLER_2_121
*1053 FILLER_2_131
*1054 FILLER_2_139
*1055 FILLER_2_141
*1056 FILLER_2_15
*1057 FILLER_2_159
*1058 FILLER_2_171
*1059 FILLER_2_183
*1060 FILLER_2_195
*1061 FILLER_2_197
*1062 FILLER_2_209
*1063 FILLER_2_221
*1064 FILLER_2_233
*1065 FILLER_2_245
*1066 FILLER_2_251
*1067 FILLER_2_253
*1068 FILLER_2_265
*1069 FILLER_2_27
*1070 FILLER_2_277
*1071 FILLER_2_289
*1072 FILLER_2_29
*1073 FILLER_2_297
*1074 FILLER_2_3
*1075 FILLER_2_37
*1076 FILLER_2_41
*1077 FILLER_2_65
*1078 FILLER_2_71
*1079 FILLER_2_78
*1080 FILLER_2_85
*1081 FILLER_2_97
*1082 FILLER_30_108
*1083 FILLER_30_11
*1084 FILLER_30_115
*1085 FILLER_30_135
*1086 FILLER_30_139
*1087 FILLER_30_141
*1088 FILLER_30_161
*1089 FILLER_30_171
*1090 FILLER_30_183
*1091 FILLER_30_195
*1092 FILLER_30_197
*1093 FILLER_30_209
*1094 FILLER_30_221
*1095 FILLER_30_23
*1096 FILLER_30_233
*1097 FILLER_30_245
*1098 FILLER_30_251
*1099 FILLER_30_253
*1100 FILLER_30_265
*1101 FILLER_30_27
*1102 FILLER_30_277
*1103 FILLER_30_289
*1104 FILLER_30_29
*1105 FILLER_30_297
*1106 FILLER_30_3
*1107 FILLER_30_34
*1108 FILLER_30_58
*1109 FILLER_30_68
*1110 FILLER_30_75
*1111 FILLER_30_82
*1112 FILLER_30_85
*1113 FILLER_30_91
*1114 FILLER_31_101
*1115 FILLER_31_110
*1116 FILLER_31_113
*1117 FILLER_31_131
*1118 FILLER_31_138
*1119 FILLER_31_148
*1120 FILLER_31_155
*1121 FILLER_31_162
*1122 FILLER_31_169
*1123 FILLER_31_181
*1124 FILLER_31_193
*1125 FILLER_31_205
*1126 FILLER_31_21
*1127 FILLER_31_217
*1128 FILLER_31_223
*1129 FILLER_31_225
*1130 FILLER_31_237
*1131 FILLER_31_249
*1132 FILLER_31_261
*1133 FILLER_31_273
*1134 FILLER_31_279
*1135 FILLER_31_281
*1136 FILLER_31_293
*1137 FILLER_31_3
*1138 FILLER_31_33
*1139 FILLER_31_45
*1140 FILLER_31_53
*1141 FILLER_31_57
*1142 FILLER_31_62
*1143 FILLER_31_74
*1144 FILLER_31_86
*1145 FILLER_31_9
*1146 FILLER_31_94
*1147 FILLER_32_109
*1148 FILLER_32_121
*1149 FILLER_32_133
*1150 FILLER_32_139
*1151 FILLER_32_141
*1152 FILLER_32_15
*1153 FILLER_32_153
*1154 FILLER_32_165
*1155 FILLER_32_177
*1156 FILLER_32_189
*1157 FILLER_32_195
*1158 FILLER_32_197
*1159 FILLER_32_209
*1160 FILLER_32_221
*1161 FILLER_32_233
*1162 FILLER_32_245
*1163 FILLER_32_251
*1164 FILLER_32_253
*1165 FILLER_32_265
*1166 FILLER_32_27
*1167 FILLER_32_277
*1168 FILLER_32_289
*1169 FILLER_32_29
*1170 FILLER_32_297
*1171 FILLER_32_3
*1172 FILLER_32_41
*1173 FILLER_32_53
*1174 FILLER_32_65
*1175 FILLER_32_77
*1176 FILLER_32_83
*1177 FILLER_32_85
*1178 FILLER_32_97
*1179 FILLER_33_105
*1180 FILLER_33_111
*1181 FILLER_33_113
*1182 FILLER_33_125
*1183 FILLER_33_137
*1184 FILLER_33_149
*1185 FILLER_33_161
*1186 FILLER_33_167
*1187 FILLER_33_169
*1188 FILLER_33_181
*1189 FILLER_33_193
*1190 FILLER_33_205
*1191 FILLER_33_21
*1192 FILLER_33_217
*1193 FILLER_33_223
*1194 FILLER_33_225
*1195 FILLER_33_237
*1196 FILLER_33_249
*1197 FILLER_33_261
*1198 FILLER_33_273
*1199 FILLER_33_279
*1200 FILLER_33_281
*1201 FILLER_33_293
*1202 FILLER_33_3
*1203 FILLER_33_33
*1204 FILLER_33_45
*1205 FILLER_33_53
*1206 FILLER_33_57
*1207 FILLER_33_69
*1208 FILLER_33_81
*1209 FILLER_33_9
*1210 FILLER_33_93
*1211 FILLER_34_109
*1212 FILLER_34_121
*1213 FILLER_34_133
*1214 FILLER_34_139
*1215 FILLER_34_141
*1216 FILLER_34_15
*1217 FILLER_34_153
*1218 FILLER_34_165
*1219 FILLER_34_177
*1220 FILLER_34_189
*1221 FILLER_34_195
*1222 FILLER_34_197
*1223 FILLER_34_209
*1224 FILLER_34_221
*1225 FILLER_34_233
*1226 FILLER_34_245
*1227 FILLER_34_251
*1228 FILLER_34_253
*1229 FILLER_34_265
*1230 FILLER_34_27
*1231 FILLER_34_277
*1232 FILLER_34_289
*1233 FILLER_34_29
*1234 FILLER_34_297
*1235 FILLER_34_3
*1236 FILLER_34_41
*1237 FILLER_34_53
*1238 FILLER_34_65
*1239 FILLER_34_77
*1240 FILLER_34_83
*1241 FILLER_34_85
*1242 FILLER_34_97
*1243 FILLER_35_105
*1244 FILLER_35_111
*1245 FILLER_35_113
*1246 FILLER_35_125
*1247 FILLER_35_137
*1248 FILLER_35_149
*1249 FILLER_35_15
*1250 FILLER_35_161
*1251 FILLER_35_167
*1252 FILLER_35_169
*1253 FILLER_35_181
*1254 FILLER_35_193
*1255 FILLER_35_205
*1256 FILLER_35_217
*1257 FILLER_35_223
*1258 FILLER_35_225
*1259 FILLER_35_237
*1260 FILLER_35_249
*1261 FILLER_35_261
*1262 FILLER_35_27
*1263 FILLER_35_273
*1264 FILLER_35_279
*1265 FILLER_35_281
*1266 FILLER_35_293
*1267 FILLER_35_3
*1268 FILLER_35_39
*1269 FILLER_35_51
*1270 FILLER_35_55
*1271 FILLER_35_57
*1272 FILLER_35_69
*1273 FILLER_35_81
*1274 FILLER_35_93
*1275 FILLER_36_109
*1276 FILLER_36_121
*1277 FILLER_36_133
*1278 FILLER_36_139
*1279 FILLER_36_141
*1280 FILLER_36_15
*1281 FILLER_36_153
*1282 FILLER_36_165
*1283 FILLER_36_177
*1284 FILLER_36_189
*1285 FILLER_36_195
*1286 FILLER_36_197
*1287 FILLER_36_209
*1288 FILLER_36_221
*1289 FILLER_36_233
*1290 FILLER_36_245
*1291 FILLER_36_251
*1292 FILLER_36_253
*1293 FILLER_36_265
*1294 FILLER_36_27
*1295 FILLER_36_277
*1296 FILLER_36_289
*1297 FILLER_36_29
*1298 FILLER_36_297
*1299 FILLER_36_3
*1300 FILLER_36_41
*1301 FILLER_36_53
*1302 FILLER_36_65
*1303 FILLER_36_77
*1304 FILLER_36_83
*1305 FILLER_36_85
*1306 FILLER_36_97
*1307 FILLER_37_105
*1308 FILLER_37_111
*1309 FILLER_37_113
*1310 FILLER_37_125
*1311 FILLER_37_137
*1312 FILLER_37_149
*1313 FILLER_37_15
*1314 FILLER_37_161
*1315 FILLER_37_167
*1316 FILLER_37_169
*1317 FILLER_37_181
*1318 FILLER_37_193
*1319 FILLER_37_205
*1320 FILLER_37_217
*1321 FILLER_37_223
*1322 FILLER_37_225
*1323 FILLER_37_237
*1324 FILLER_37_249
*1325 FILLER_37_261
*1326 FILLER_37_27
*1327 FILLER_37_273
*1328 FILLER_37_279
*1329 FILLER_37_281
*1330 FILLER_37_293
*1331 FILLER_37_3
*1332 FILLER_37_39
*1333 FILLER_37_51
*1334 FILLER_37_55
*1335 FILLER_37_57
*1336 FILLER_37_69
*1337 FILLER_37_81
*1338 FILLER_37_93
*1339 FILLER_38_109
*1340 FILLER_38_121
*1341 FILLER_38_133
*1342 FILLER_38_139
*1343 FILLER_38_141
*1344 FILLER_38_15
*1345 FILLER_38_153
*1346 FILLER_38_165
*1347 FILLER_38_177
*1348 FILLER_38_189
*1349 FILLER_38_195
*1350 FILLER_38_197
*1351 FILLER_38_209
*1352 FILLER_38_221
*1353 FILLER_38_233
*1354 FILLER_38_245
*1355 FILLER_38_251
*1356 FILLER_38_253
*1357 FILLER_38_265
*1358 FILLER_38_27
*1359 FILLER_38_277
*1360 FILLER_38_289
*1361 FILLER_38_29
*1362 FILLER_38_297
*1363 FILLER_38_3
*1364 FILLER_38_41
*1365 FILLER_38_53
*1366 FILLER_38_65
*1367 FILLER_38_77
*1368 FILLER_38_83
*1369 FILLER_38_85
*1370 FILLER_38_97
*1371 FILLER_39_105
*1372 FILLER_39_111
*1373 FILLER_39_113
*1374 FILLER_39_125
*1375 FILLER_39_137
*1376 FILLER_39_149
*1377 FILLER_39_161
*1378 FILLER_39_167
*1379 FILLER_39_169
*1380 FILLER_39_181
*1381 FILLER_39_193
*1382 FILLER_39_20
*1383 FILLER_39_205
*1384 FILLER_39_217
*1385 FILLER_39_223
*1386 FILLER_39_225
*1387 FILLER_39_237
*1388 FILLER_39_249
*1389 FILLER_39_261
*1390 FILLER_39_273
*1391 FILLER_39_279
*1392 FILLER_39_281
*1393 FILLER_39_293
*1394 FILLER_39_3
*1395 FILLER_39_32
*1396 FILLER_39_44
*1397 FILLER_39_57
*1398 FILLER_39_69
*1399 FILLER_39_8
*1400 FILLER_39_81
*1401 FILLER_39_93
*1402 FILLER_3_107
*1403 FILLER_3_111
*1404 FILLER_3_113
*1405 FILLER_3_131
*1406 FILLER_3_141
*1407 FILLER_3_15
*1408 FILLER_3_153
*1409 FILLER_3_165
*1410 FILLER_3_169
*1411 FILLER_3_181
*1412 FILLER_3_193
*1413 FILLER_3_205
*1414 FILLER_3_217
*1415 FILLER_3_223
*1416 FILLER_3_225
*1417 FILLER_3_237
*1418 FILLER_3_24
*1419 FILLER_3_249
*1420 FILLER_3_261
*1421 FILLER_3_273
*1422 FILLER_3_279
*1423 FILLER_3_281
*1424 FILLER_3_293
*1425 FILLER_3_3
*1426 FILLER_3_33
*1427 FILLER_3_42
*1428 FILLER_3_50
*1429 FILLER_3_54
*1430 FILLER_3_57
*1431 FILLER_3_64
*1432 FILLER_3_71
*1433 FILLER_3_91
*1434 FILLER_3_99
*1435 FILLER_40_109
*1436 FILLER_40_121
*1437 FILLER_40_133
*1438 FILLER_40_139
*1439 FILLER_40_141
*1440 FILLER_40_15
*1441 FILLER_40_153
*1442 FILLER_40_165
*1443 FILLER_40_177
*1444 FILLER_40_189
*1445 FILLER_40_195
*1446 FILLER_40_197
*1447 FILLER_40_209
*1448 FILLER_40_221
*1449 FILLER_40_233
*1450 FILLER_40_245
*1451 FILLER_40_251
*1452 FILLER_40_253
*1453 FILLER_40_265
*1454 FILLER_40_27
*1455 FILLER_40_277
*1456 FILLER_40_289
*1457 FILLER_40_29
*1458 FILLER_40_297
*1459 FILLER_40_3
*1460 FILLER_40_41
*1461 FILLER_40_53
*1462 FILLER_40_65
*1463 FILLER_40_77
*1464 FILLER_40_83
*1465 FILLER_40_85
*1466 FILLER_40_97
*1467 FILLER_41_105
*1468 FILLER_41_111
*1469 FILLER_41_113
*1470 FILLER_41_125
*1471 FILLER_41_137
*1472 FILLER_41_149
*1473 FILLER_41_15
*1474 FILLER_41_161
*1475 FILLER_41_167
*1476 FILLER_41_169
*1477 FILLER_41_181
*1478 FILLER_41_193
*1479 FILLER_41_205
*1480 FILLER_41_217
*1481 FILLER_41_223
*1482 FILLER_41_225
*1483 FILLER_41_237
*1484 FILLER_41_249
*1485 FILLER_41_261
*1486 FILLER_41_27
*1487 FILLER_41_273
*1488 FILLER_41_279
*1489 FILLER_41_281
*1490 FILLER_41_293
*1491 FILLER_41_3
*1492 FILLER_41_39
*1493 FILLER_41_51
*1494 FILLER_41_55
*1495 FILLER_41_57
*1496 FILLER_41_69
*1497 FILLER_41_81
*1498 FILLER_41_93
*1499 FILLER_42_109
*1500 FILLER_42_121
*1501 FILLER_42_133
*1502 FILLER_42_139
*1503 FILLER_42_141
*1504 FILLER_42_153
*1505 FILLER_42_165
*1506 FILLER_42_177
*1507 FILLER_42_189
*1508 FILLER_42_195
*1509 FILLER_42_197
*1510 FILLER_42_20
*1511 FILLER_42_209
*1512 FILLER_42_221
*1513 FILLER_42_233
*1514 FILLER_42_245
*1515 FILLER_42_251
*1516 FILLER_42_253
*1517 FILLER_42_265
*1518 FILLER_42_277
*1519 FILLER_42_289
*1520 FILLER_42_29
*1521 FILLER_42_297
*1522 FILLER_42_3
*1523 FILLER_42_41
*1524 FILLER_42_53
*1525 FILLER_42_65
*1526 FILLER_42_77
*1527 FILLER_42_8
*1528 FILLER_42_83
*1529 FILLER_42_85
*1530 FILLER_42_97
*1531 FILLER_43_105
*1532 FILLER_43_111
*1533 FILLER_43_113
*1534 FILLER_43_125
*1535 FILLER_43_137
*1536 FILLER_43_149
*1537 FILLER_43_15
*1538 FILLER_43_161
*1539 FILLER_43_167
*1540 FILLER_43_169
*1541 FILLER_43_181
*1542 FILLER_43_193
*1543 FILLER_43_205
*1544 FILLER_43_217
*1545 FILLER_43_223
*1546 FILLER_43_225
*1547 FILLER_43_237
*1548 FILLER_43_249
*1549 FILLER_43_261
*1550 FILLER_43_27
*1551 FILLER_43_273
*1552 FILLER_43_279
*1553 FILLER_43_281
*1554 FILLER_43_293
*1555 FILLER_43_3
*1556 FILLER_43_39
*1557 FILLER_43_51
*1558 FILLER_43_55
*1559 FILLER_43_57
*1560 FILLER_43_69
*1561 FILLER_43_81
*1562 FILLER_43_93
*1563 FILLER_44_109
*1564 FILLER_44_121
*1565 FILLER_44_133
*1566 FILLER_44_139
*1567 FILLER_44_141
*1568 FILLER_44_15
*1569 FILLER_44_153
*1570 FILLER_44_165
*1571 FILLER_44_177
*1572 FILLER_44_189
*1573 FILLER_44_195
*1574 FILLER_44_197
*1575 FILLER_44_209
*1576 FILLER_44_221
*1577 FILLER_44_233
*1578 FILLER_44_245
*1579 FILLER_44_251
*1580 FILLER_44_253
*1581 FILLER_44_265
*1582 FILLER_44_27
*1583 FILLER_44_277
*1584 FILLER_44_289
*1585 FILLER_44_29
*1586 FILLER_44_297
*1587 FILLER_44_3
*1588 FILLER_44_41
*1589 FILLER_44_53
*1590 FILLER_44_65
*1591 FILLER_44_77
*1592 FILLER_44_83
*1593 FILLER_44_85
*1594 FILLER_44_97
*1595 FILLER_45_105
*1596 FILLER_45_111
*1597 FILLER_45_113
*1598 FILLER_45_125
*1599 FILLER_45_137
*1600 FILLER_45_149
*1601 FILLER_45_15
*1602 FILLER_45_161
*1603 FILLER_45_167
*1604 FILLER_45_169
*1605 FILLER_45_181
*1606 FILLER_45_193
*1607 FILLER_45_205
*1608 FILLER_45_217
*1609 FILLER_45_223
*1610 FILLER_45_225
*1611 FILLER_45_237
*1612 FILLER_45_249
*1613 FILLER_45_261
*1614 FILLER_45_27
*1615 FILLER_45_273
*1616 FILLER_45_279
*1617 FILLER_45_281
*1618 FILLER_45_293
*1619 FILLER_45_3
*1620 FILLER_45_39
*1621 FILLER_45_51
*1622 FILLER_45_55
*1623 FILLER_45_57
*1624 FILLER_45_69
*1625 FILLER_45_81
*1626 FILLER_45_93
*1627 FILLER_46_109
*1628 FILLER_46_121
*1629 FILLER_46_133
*1630 FILLER_46_139
*1631 FILLER_46_141
*1632 FILLER_46_153
*1633 FILLER_46_165
*1634 FILLER_46_177
*1635 FILLER_46_189
*1636 FILLER_46_195
*1637 FILLER_46_197
*1638 FILLER_46_20
*1639 FILLER_46_209
*1640 FILLER_46_221
*1641 FILLER_46_233
*1642 FILLER_46_245
*1643 FILLER_46_251
*1644 FILLER_46_253
*1645 FILLER_46_265
*1646 FILLER_46_277
*1647 FILLER_46_289
*1648 FILLER_46_29
*1649 FILLER_46_297
*1650 FILLER_46_3
*1651 FILLER_46_41
*1652 FILLER_46_53
*1653 FILLER_46_65
*1654 FILLER_46_77
*1655 FILLER_46_8
*1656 FILLER_46_83
*1657 FILLER_46_85
*1658 FILLER_46_97
*1659 FILLER_47_105
*1660 FILLER_47_111
*1661 FILLER_47_113
*1662 FILLER_47_125
*1663 FILLER_47_137
*1664 FILLER_47_149
*1665 FILLER_47_15
*1666 FILLER_47_161
*1667 FILLER_47_167
*1668 FILLER_47_169
*1669 FILLER_47_181
*1670 FILLER_47_193
*1671 FILLER_47_205
*1672 FILLER_47_217
*1673 FILLER_47_223
*1674 FILLER_47_225
*1675 FILLER_47_237
*1676 FILLER_47_249
*1677 FILLER_47_261
*1678 FILLER_47_27
*1679 FILLER_47_273
*1680 FILLER_47_279
*1681 FILLER_47_281
*1682 FILLER_47_293