*SPEF "ieee 1481-1999"
*DESIGN "user_module_348195845106041428"
*DATE "11:11:11 Fri 11 11, 1111"
*VENDOR "OpenRCX"
*PROGRAM "Parallel Extraction"
*VERSION "1.0"
*DESIGN_FLOW "NAME_SCOPE LOCAL" "PIN_CAP NONE"
*DIVIDER /
*DELIMITER :
*BUS_DELIMITER []
*T_UNIT 1 NS
*C_UNIT 1 PF
*R_UNIT 1 OHM
*L_UNIT 1 HENRY

*NAME_MAP
*1 io_in[0]
*2 io_in[1]
*3 io_in[2]
*4 io_in[3]
*5 io_in[4]
*6 io_in[5]
*7 io_in[6]
*8 io_in[7]
*9 io_out[0]
*10 io_out[1]
*11 net3
*12 net4
*13 net5
*14 net6
*15 net7
*16 net8
*19 _00_
*20 _01_
*21 _02_
*22 _03_
*23 and1\.a
*24 and1\.b
*25 and2\.a
*26 and2\.b
*27 clknet_0_and1\.a
*28 clknet_0_and1\.b
*29 clknet_0_and2\.a
*30 clknet_0_and2\.b
*31 clknet_0_gate5\.out
*32 clknet_0_nand13\.b
*33 clknet_0_nand13\.out
*34 clknet_1_0__leaf_and1\.a
*35 clknet_1_0__leaf_and1\.b
*36 clknet_1_0__leaf_and2\.a
*37 clknet_1_0__leaf_and2\.b
*38 clknet_1_0__leaf_gate5\.out
*39 clknet_1_0__leaf_nand13\.b
*40 clknet_1_0__leaf_nand13\.out
*41 clknet_1_1__leaf_and1\.a
*42 clknet_1_1__leaf_and1\.b
*43 clknet_1_1__leaf_and2\.a
*44 clknet_1_1__leaf_and2\.b
*45 clknet_1_1__leaf_gate5\.out
*46 clknet_1_1__leaf_nand13\.b
*47 clknet_1_1__leaf_nand13\.out
*48 gate5\.out
*49 nand13\.b
*50 nand13\.out
*51 net1
*52 net2
*53 FILLER_0_109
*54 FILLER_0_113
*55 FILLER_0_125
*56 FILLER_0_137
*57 FILLER_0_141
*58 FILLER_0_153
*59 FILLER_0_165
*60 FILLER_0_169
*61 FILLER_0_181
*62 FILLER_0_193
*63 FILLER_0_197
*64 FILLER_0_209
*65 FILLER_0_221
*66 FILLER_0_225
*67 FILLER_0_237
*68 FILLER_0_249
*69 FILLER_0_253
*70 FILLER_0_26
*71 FILLER_0_265
*72 FILLER_0_277
*73 FILLER_0_281
*74 FILLER_0_29
*75 FILLER_0_293
*76 FILLER_0_3
*77 FILLER_0_51
*78 FILLER_0_55
*79 FILLER_0_57
*80 FILLER_0_79
*81 FILLER_0_83
*82 FILLER_0_85
*83 FILLER_0_97
*84 FILLER_10_109
*85 FILLER_10_121
*86 FILLER_10_133
*87 FILLER_10_139
*88 FILLER_10_141
*89 FILLER_10_153
*90 FILLER_10_165
*91 FILLER_10_177
*92 FILLER_10_189
*93 FILLER_10_195
*94 FILLER_10_197
*95 FILLER_10_209
*96 FILLER_10_221
*97 FILLER_10_233
*98 FILLER_10_245
*99 FILLER_10_25
*100 FILLER_10_251
*101 FILLER_10_253
*102 FILLER_10_265
*103 FILLER_10_277
*104 FILLER_10_289
*105 FILLER_10_29
*106 FILLER_10_297
*107 FILLER_10_3
*108 FILLER_10_34
*109 FILLER_10_46
*110 FILLER_10_58
*111 FILLER_10_70
*112 FILLER_10_82
*113 FILLER_10_85
*114 FILLER_10_97
*115 FILLER_11_105
*116 FILLER_11_111
*117 FILLER_11_113
*118 FILLER_11_125
*119 FILLER_11_137
*120 FILLER_11_149
*121 FILLER_11_16
*122 FILLER_11_161
*123 FILLER_11_167
*124 FILLER_11_169
*125 FILLER_11_181
*126 FILLER_11_193
*127 FILLER_11_205
*128 FILLER_11_217
*129 FILLER_11_223
*130 FILLER_11_225
*131 FILLER_11_237
*132 FILLER_11_249
*133 FILLER_11_261
*134 FILLER_11_273
*135 FILLER_11_279
*136 FILLER_11_28
*137 FILLER_11_281
*138 FILLER_11_293
*139 FILLER_11_3
*140 FILLER_11_40
*141 FILLER_11_52
*142 FILLER_11_57
*143 FILLER_11_69
*144 FILLER_11_81
*145 FILLER_11_9
*146 FILLER_11_93
*147 FILLER_12_109
*148 FILLER_12_121
*149 FILLER_12_133
*150 FILLER_12_139
*151 FILLER_12_141
*152 FILLER_12_153
*153 FILLER_12_165
*154 FILLER_12_177
*155 FILLER_12_189
*156 FILLER_12_195
*157 FILLER_12_197
*158 FILLER_12_209
*159 FILLER_12_221
*160 FILLER_12_233
*161 FILLER_12_245
*162 FILLER_12_25
*163 FILLER_12_251
*164 FILLER_12_253
*165 FILLER_12_265
*166 FILLER_12_277
*167 FILLER_12_289
*168 FILLER_12_29
*169 FILLER_12_297
*170 FILLER_12_3
*171 FILLER_12_41
*172 FILLER_12_53
*173 FILLER_12_65
*174 FILLER_12_77
*175 FILLER_12_83
*176 FILLER_12_85
*177 FILLER_12_97
*178 FILLER_13_105
*179 FILLER_13_111
*180 FILLER_13_113
*181 FILLER_13_125
*182 FILLER_13_137
*183 FILLER_13_149
*184 FILLER_13_15
*185 FILLER_13_161
*186 FILLER_13_167
*187 FILLER_13_169
*188 FILLER_13_181
*189 FILLER_13_193
*190 FILLER_13_205
*191 FILLER_13_217
*192 FILLER_13_223
*193 FILLER_13_225
*194 FILLER_13_237
*195 FILLER_13_249
*196 FILLER_13_261
*197 FILLER_13_27
*198 FILLER_13_273
*199 FILLER_13_279
*200 FILLER_13_281
*201 FILLER_13_293
*202 FILLER_13_3
*203 FILLER_13_39
*204 FILLER_13_51
*205 FILLER_13_55
*206 FILLER_13_57
*207 FILLER_13_69
*208 FILLER_13_81
*209 FILLER_13_93
*210 FILLER_14_109
*211 FILLER_14_121
*212 FILLER_14_133
*213 FILLER_14_139
*214 FILLER_14_141
*215 FILLER_14_15
*216 FILLER_14_153
*217 FILLER_14_165
*218 FILLER_14_177
*219 FILLER_14_189
*220 FILLER_14_195
*221 FILLER_14_197
*222 FILLER_14_209
*223 FILLER_14_221
*224 FILLER_14_233
*225 FILLER_14_245
*226 FILLER_14_251
*227 FILLER_14_253
*228 FILLER_14_265
*229 FILLER_14_27
*230 FILLER_14_277
*231 FILLER_14_289
*232 FILLER_14_29
*233 FILLER_14_297
*234 FILLER_14_3
*235 FILLER_14_41
*236 FILLER_14_53
*237 FILLER_14_65
*238 FILLER_14_77
*239 FILLER_14_83
*240 FILLER_14_85
*241 FILLER_14_97
*242 FILLER_15_105
*243 FILLER_15_111
*244 FILLER_15_113
*245 FILLER_15_125
*246 FILLER_15_137
*247 FILLER_15_149
*248 FILLER_15_15
*249 FILLER_15_161
*250 FILLER_15_167
*251 FILLER_15_169
*252 FILLER_15_181
*253 FILLER_15_193
*254 FILLER_15_205
*255 FILLER_15_217
*256 FILLER_15_223
*257 FILLER_15_225
*258 FILLER_15_237
*259 FILLER_15_249
*260 FILLER_15_261
*261 FILLER_15_27
*262 FILLER_15_273
*263 FILLER_15_279
*264 FILLER_15_281
*265 FILLER_15_293
*266 FILLER_15_3
*267 FILLER_15_39
*268 FILLER_15_51
*269 FILLER_15_55
*270 FILLER_15_57
*271 FILLER_15_69
*272 FILLER_15_81
*273 FILLER_15_93
*274 FILLER_16_109
*275 FILLER_16_121
*276 FILLER_16_133
*277 FILLER_16_139
*278 FILLER_16_141
*279 FILLER_16_15
*280 FILLER_16_153
*281 FILLER_16_165
*282 FILLER_16_177
*283 FILLER_16_189
*284 FILLER_16_195
*285 FILLER_16_197
*286 FILLER_16_209
*287 FILLER_16_221
*288 FILLER_16_233
*289 FILLER_16_245
*290 FILLER_16_251
*291 FILLER_16_253
*292 FILLER_16_265
*293 FILLER_16_27
*294 FILLER_16_277
*295 FILLER_16_289
*296 FILLER_16_29
*297 FILLER_16_297
*298 FILLER_16_3
*299 FILLER_16_41
*300 FILLER_16_53
*301 FILLER_16_65
*302 FILLER_16_77
*303 FILLER_16_83
*304 FILLER_16_85
*305 FILLER_16_97
*306 FILLER_17_105
*307 FILLER_17_111
*308 FILLER_17_113
*309 FILLER_17_125
*310 FILLER_17_137
*311 FILLER_17_149
*312 FILLER_17_15
*313 FILLER_17_161
*314 FILLER_17_167
*315 FILLER_17_169
*316 FILLER_17_181
*317 FILLER_17_193
*318 FILLER_17_205
*319 FILLER_17_217
*320 FILLER_17_223
*321 FILLER_17_225
*322 FILLER_17_237
*323 FILLER_17_249
*324 FILLER_17_261
*325 FILLER_17_27
*326 FILLER_17_273
*327 FILLER_17_279
*328 FILLER_17_281
*329 FILLER_17_293
*330 FILLER_17_3
*331 FILLER_17_39
*332 FILLER_17_51
*333 FILLER_17_55
*334 FILLER_17_57
*335 FILLER_17_69
*336 FILLER_17_81
*337 FILLER_17_93
*338 FILLER_18_109
*339 FILLER_18_121
*340 FILLER_18_133
*341 FILLER_18_139
*342 FILLER_18_141
*343 FILLER_18_15
*344 FILLER_18_153
*345 FILLER_18_165
*346 FILLER_18_177
*347 FILLER_18_189
*348 FILLER_18_195
*349 FILLER_18_197
*350 FILLER_18_209
*351 FILLER_18_221
*352 FILLER_18_233
*353 FILLER_18_245
*354 FILLER_18_251
*355 FILLER_18_253
*356 FILLER_18_265
*357 FILLER_18_27
*358 FILLER_18_277
*359 FILLER_18_289
*360 FILLER_18_29
*361 FILLER_18_297
*362 FILLER_18_3
*363 FILLER_18_41
*364 FILLER_18_53
*365 FILLER_18_65
*366 FILLER_18_77
*367 FILLER_18_83
*368 FILLER_18_85
*369 FILLER_18_97
*370 FILLER_19_105
*371 FILLER_19_111
*372 FILLER_19_113
*373 FILLER_19_125
*374 FILLER_19_137
*375 FILLER_19_149
*376 FILLER_19_15
*377 FILLER_19_161
*378 FILLER_19_167
*379 FILLER_19_169
*380 FILLER_19_181
*381 FILLER_19_193
*382 FILLER_19_205
*383 FILLER_19_217
*384 FILLER_19_223
*385 FILLER_19_225
*386 FILLER_19_237
*387 FILLER_19_249
*388 FILLER_19_261
*389 FILLER_19_27
*390 FILLER_19_273
*391 FILLER_19_279
*392 FILLER_19_281
*393 FILLER_19_293
*394 FILLER_19_3
*395 FILLER_19_39
*396 FILLER_19_51
*397 FILLER_19_55
*398 FILLER_19_57
*399 FILLER_19_69
*400 FILLER_19_81
*401 FILLER_19_93
*402 FILLER_1_105
*403 FILLER_1_111
*404 FILLER_1_113
*405 FILLER_1_12
*406 FILLER_1_125
*407 FILLER_1_137
*408 FILLER_1_149
*409 FILLER_1_161
*410 FILLER_1_167
*411 FILLER_1_169
*412 FILLER_1_181
*413 FILLER_1_193
*414 FILLER_1_205
*415 FILLER_1_217
*416 FILLER_1_223
*417 FILLER_1_225
*418 FILLER_1_237
*419 FILLER_1_249
*420 FILLER_1_261
*421 FILLER_1_273
*422 FILLER_1_279
*423 FILLER_1_281
*424 FILLER_1_293
*425 FILLER_1_3
*426 FILLER_1_36
*427 FILLER_1_43
*428 FILLER_1_55
*429 FILLER_1_57
*430 FILLER_1_69
*431 FILLER_1_81
*432 FILLER_1_93
*433 FILLER_20_109
*434 FILLER_20_121
*435 FILLER_20_133
*436 FILLER_20_139
*437 FILLER_20_141
*438 FILLER_20_15
*439 FILLER_20_153
*440 FILLER_20_165
*441 FILLER_20_177
*442 FILLER_20_189
*443 FILLER_20_195
*444 FILLER_20_197
*445 FILLER_20_209
*446 FILLER_20_221
*447 FILLER_20_233
*448 FILLER_20_245
*449 FILLER_20_251
*450 FILLER_20_253
*451 FILLER_20_265
*452 FILLER_20_27
*453 FILLER_20_277
*454 FILLER_20_289
*455 FILLER_20_29
*456 FILLER_20_297
*457 FILLER_20_3
*458 FILLER_20_41
*459 FILLER_20_53
*460 FILLER_20_65
*461 FILLER_20_77
*462 FILLER_20_83
*463 FILLER_20_85
*464 FILLER_20_97
*465 FILLER_21_105
*466 FILLER_21_111
*467 FILLER_21_113
*468 FILLER_21_125
*469 FILLER_21_137
*470 FILLER_21_149
*471 FILLER_21_15
*472 FILLER_21_161
*473 FILLER_21_167
*474 FILLER_21_169
*475 FILLER_21_181
*476 FILLER_21_193
*477 FILLER_21_205
*478 FILLER_21_217
*479 FILLER_21_223
*480 FILLER_21_225
*481 FILLER_21_237
*482 FILLER_21_249
*483 FILLER_21_261
*484 FILLER_21_27
*485 FILLER_21_273
*486 FILLER_21_279
*487 FILLER_21_281
*488 FILLER_21_293
*489 FILLER_21_3
*490 FILLER_21_39
*491 FILLER_21_51
*492 FILLER_21_55
*493 FILLER_21_57
*494 FILLER_21_69
*495 FILLER_21_81
*496 FILLER_21_93
*497 FILLER_22_109
*498 FILLER_22_121
*499 FILLER_22_133
*500 FILLER_22_139
*501 FILLER_22_141
*502 FILLER_22_15
*503 FILLER_22_153
*504 FILLER_22_165
*505 FILLER_22_177
*506 FILLER_22_189
*507 FILLER_22_195
*508 FILLER_22_197
*509 FILLER_22_209
*510 FILLER_22_221
*511 FILLER_22_233
*512 FILLER_22_245
*513 FILLER_22_251
*514 FILLER_22_253
*515 FILLER_22_265
*516 FILLER_22_27
*517 FILLER_22_277
*518 FILLER_22_289
*519 FILLER_22_29
*520 FILLER_22_297
*521 FILLER_22_3
*522 FILLER_22_41
*523 FILLER_22_53
*524 FILLER_22_65
*525 FILLER_22_77
*526 FILLER_22_83
*527 FILLER_22_85
*528 FILLER_22_97
*529 FILLER_23_105
*530 FILLER_23_111
*531 FILLER_23_113
*532 FILLER_23_125
*533 FILLER_23_137
*534 FILLER_23_149
*535 FILLER_23_15
*536 FILLER_23_161
*537 FILLER_23_167
*538 FILLER_23_169
*539 FILLER_23_181
*540 FILLER_23_193
*541 FILLER_23_205
*542 FILLER_23_217
*543 FILLER_23_223
*544 FILLER_23_225
*545 FILLER_23_237
*546 FILLER_23_249
*547 FILLER_23_261
*548 FILLER_23_27
*549 FILLER_23_273
*550 FILLER_23_279
*551 FILLER_23_281
*552 FILLER_23_293
*553 FILLER_23_3
*554 FILLER_23_39
*555 FILLER_23_51
*556 FILLER_23_55
*557 FILLER_23_57
*558 FILLER_23_69
*559 FILLER_23_81
*560 FILLER_23_93
*561 FILLER_24_109
*562 FILLER_24_121
*563 FILLER_24_133
*564 FILLER_24_139
*565 FILLER_24_141
*566 FILLER_24_15
*567 FILLER_24_153
*568 FILLER_24_165
*569 FILLER_24_177
*570 FILLER_24_189
*571 FILLER_24_195
*572 FILLER_24_197
*573 FILLER_24_209
*574 FILLER_24_221
*575 FILLER_24_233
*576 FILLER_24_245
*577 FILLER_24_251
*578 FILLER_24_253
*579 FILLER_24_265
*580 FILLER_24_27
*581 FILLER_24_277
*582 FILLER_24_289
*583 FILLER_24_29
*584 FILLER_24_297
*585 FILLER_24_3
*586 FILLER_24_41
*587 FILLER_24_53
*588 FILLER_24_65
*589 FILLER_24_77
*590 FILLER_24_83
*591 FILLER_24_85
*592 FILLER_24_97
*593 FILLER_25_105
*594 FILLER_25_111
*595 FILLER_25_113
*596 FILLER_25_125
*597 FILLER_25_137
*598 FILLER_25_149
*599 FILLER_25_15
*600 FILLER_25_161
*601 FILLER_25_167
*602 FILLER_25_169
*603 FILLER_25_181
*604 FILLER_25_193
*605 FILLER_25_205
*606 FILLER_25_217
*607 FILLER_25_223
*608 FILLER_25_225
*609 FILLER_25_237
*610 FILLER_25_249
*611 FILLER_25_261
*612 FILLER_25_27
*613 FILLER_25_273
*614 FILLER_25_279
*615 FILLER_25_281
*616 FILLER_25_293
*617 FILLER_25_3
*618 FILLER_25_39
*619 FILLER_25_51
*620 FILLER_25_55
*621 FILLER_25_57
*622 FILLER_25_69
*623 FILLER_25_81
*624 FILLER_25_93
*625 FILLER_26_109
*626 FILLER_26_121
*627 FILLER_26_133
*628 FILLER_26_139
*629 FILLER_26_141
*630 FILLER_26_15
*631 FILLER_26_153
*632 FILLER_26_165
*633 FILLER_26_177
*634 FILLER_26_189
*635 FILLER_26_195
*636 FILLER_26_197
*637 FILLER_26_209
*638 FILLER_26_221
*639 FILLER_26_233
*640 FILLER_26_245
*641 FILLER_26_251
*642 FILLER_26_253
*643 FILLER_26_265
*644 FILLER_26_27
*645 FILLER_26_277
*646 FILLER_26_289
*647 FILLER_26_29
*648 FILLER_26_297
*649 FILLER_26_3
*650 FILLER_26_41
*651 FILLER_26_53
*652 FILLER_26_65
*653 FILLER_26_77
*654 FILLER_26_83
*655 FILLER_26_85
*656 FILLER_26_97
*657 FILLER_27_105
*658 FILLER_27_111
*659 FILLER_27_113
*660 FILLER_27_125
*661 FILLER_27_137
*662 FILLER_27_149
*663 FILLER_27_15
*664 FILLER_27_161
*665 FILLER_27_167
*666 FILLER_27_169
*667 FILLER_27_181
*668 FILLER_27_193
*669 FILLER_27_205
*670 FILLER_27_217
*671 FILLER_27_223
*672 FILLER_27_225
*673 FILLER_27_237
*674 FILLER_27_249
*675 FILLER_27_261
*676 FILLER_27_27
*677 FILLER_27_273
*678 FILLER_27_279
*679 FILLER_27_281
*680 FILLER_27_293
*681 FILLER_27_3
*682 FILLER_27_39
*683 FILLER_27_51
*684 FILLER_27_55
*685 FILLER_27_57
*686 FILLER_27_69
*687 FILLER_27_81
*688 FILLER_27_93
*689 FILLER_28_109
*690 FILLER_28_121
*691 FILLER_28_133
*692 FILLER_28_139
*693 FILLER_28_141
*694 FILLER_28_15
*695 FILLER_28_153
*696 FILLER_28_165
*697 FILLER_28_177
*698 FILLER_28_189
*699 FILLER_28_195
*700 FILLER_28_197
*701 FILLER_28_209
*702 FILLER_28_221
*703 FILLER_28_233
*704 FILLER_28_245
*705 FILLER_28_251
*706 FILLER_28_253
*707 FILLER_28_265
*708 FILLER_28_27
*709 FILLER_28_277
*710 FILLER_28_289
*711 FILLER_28_29
*712 FILLER_28_297
*713 FILLER_28_3
*714 FILLER_28_41
*715 FILLER_28_53
*716 FILLER_28_65
*717 FILLER_28_77
*718 FILLER_28_83
*719 FILLER_28_85
*720 FILLER_28_97
*721 FILLER_29_105
*722 FILLER_29_111
*723 FILLER_29_113
*724 FILLER_29_125
*725 FILLER_29_137
*726 FILLER_29_149
*727 FILLER_29_15
*728 FILLER_29_161
*729 FILLER_29_167
*730 FILLER_29_169
*731 FILLER_29_181
*732 FILLER_29_193
*733 FILLER_29_205
*734 FILLER_29_217
*735 FILLER_29_223
*736 FILLER_29_225
*737 FILLER_29_237
*738 FILLER_29_249
*739 FILLER_29_261
*740 FILLER_29_27
*741 FILLER_29_273
*742 FILLER_29_279
*743 FILLER_29_281
*744 FILLER_29_293
*745 FILLER_29_3
*746 FILLER_29_39
*747 FILLER_29_51
*748 FILLER_29_55
*749 FILLER_29_57
*750 FILLER_29_69
*751 FILLER_29_81
*752 FILLER_29_93
*753 FILLER_2_109
*754 FILLER_2_121
*755 FILLER_2_133
*756 FILLER_2_139
*757 FILLER_2_141
*758 FILLER_2_153
*759 FILLER_2_165
*760 FILLER_2_177
*761 FILLER_2_189
*762 FILLER_2_195
*763 FILLER_2_197
*764 FILLER_2_209
*765 FILLER_2_221
*766 FILLER_2_233
*767 FILLER_2_245
*768 FILLER_2_251
*769 FILLER_2_253
*770 FILLER_2_26
*771 FILLER_2_265
*772 FILLER_2_277
*773 FILLER_2_289
*774 FILLER_2_29
*775 FILLER_2_297
*776 FILLER_2_3
*777 FILLER_2_51
*778 FILLER_2_75
*779 FILLER_2_83
*780 FILLER_2_85
*781 FILLER_2_97
*782 FILLER_30_109
*783 FILLER_30_121
*784 FILLER_30_133
*785 FILLER_30_139
*786 FILLER_30_141
*787 FILLER_30_15
*788 FILLER_30_153
*789 FILLER_30_165
*790 FILLER_30_177
*791 FILLER_30_189
*792 FILLER_30_195
*793 FILLER_30_197
*794 FILLER_30_209
*795 FILLER_30_221
*796 FILLER_30_233
*797 FILLER_30_245
*798 FILLER_30_251
*799 FILLER_30_253
*800 FILLER_30_265
*801 FILLER_30_27
*802 FILLER_30_277
*803 FILLER_30_289
*804 FILLER_30_29
*805 FILLER_30_297
*806 FILLER_30_3
*807 FILLER_30_41
*808 FILLER_30_53
*809 FILLER_30_65
*810 FILLER_30_77
*811 FILLER_30_83
*812 FILLER_30_85
*813 FILLER_30_97
*814 FILLER_31_105
*815 FILLER_31_111
*816 FILLER_31_113
*817 FILLER_31_125
*818 FILLER_31_137
*819 FILLER_31_149
*820 FILLER_31_15
*821 FILLER_31_161
*822 FILLER_31_167
*823 FILLER_31_169
*824 FILLER_31_181
*825 FILLER_31_193
*826 FILLER_31_205
*827 FILLER_31_217
*828 FILLER_31_223
*829 FILLER_31_225
*830 FILLER_31_237
*831 FILLER_31_249
*832 FILLER_31_261
*833 FILLER_31_27
*834 FILLER_31_273
*835 FILLER_31_279
*836 FILLER_31_281
*837 FILLER_31_293
*838 FILLER_31_3
*839 FILLER_31_39
*840 FILLER_31_51
*841 FILLER_31_55
*842 FILLER_31_57
*843 FILLER_31_69
*844 FILLER_31_81
*845 FILLER_31_93
*846 FILLER_32_109
*847 FILLER_32_121
*848 FILLER_32_133
*849 FILLER_32_139
*850 FILLER_32_141
*851 FILLER_32_15
*852 FILLER_32_153
*853 FILLER_32_165
*854 FILLER_32_177
*855 FILLER_32_189
*856 FILLER_32_195
*857 FILLER_32_197
*858 FILLER_32_209
*859 FILLER_32_221
*860 FILLER_32_233
*861 FILLER_32_245
*862 FILLER_32_251
*863 FILLER_32_253
*864 FILLER_32_265
*865 FILLER_32_27
*866 FILLER_32_277
*867 FILLER_32_289
*868 FILLER_32_29
*869 FILLER_32_297
*870 FILLER_32_3
*871 FILLER_32_41
*872 FILLER_32_53
*873 FILLER_32_65
*874 FILLER_32_77
*875 FILLER_32_83
*876 FILLER_32_85
*877 FILLER_32_97
*878 FILLER_33_105
*879 FILLER_33_111
*880 FILLER_33_113
*881 FILLER_33_125
*882 FILLER_33_137
*883 FILLER_33_149
*884 FILLER_33_15
*885 FILLER_33_161
*886 FILLER_33_167
*887 FILLER_33_169
*888 FILLER_33_181
*889 FILLER_33_193
*890 FILLER_33_205
*891 FILLER_33_217
*892 FILLER_33_223
*893 FILLER_33_225
*894 FILLER_33_237
*895 FILLER_33_249
*896 FILLER_33_261
*897 FILLER_33_27
*898 FILLER_33_273
*899 FILLER_33_279
*900 FILLER_33_281
*901 FILLER_33_293
*902 FILLER_33_3
*903 FILLER_33_39
*904 FILLER_33_51
*905 FILLER_33_55
*906 FILLER_33_57
*907 FILLER_33_69
*908 FILLER_33_81
*909 FILLER_33_93
*910 FILLER_34_109
*911 FILLER_34_121
*912 FILLER_34_133
*913 FILLER_34_139
*914 FILLER_34_141
*915 FILLER_34_15
*916 FILLER_34_153
*917 FILLER_34_165
*918 FILLER_34_177
*919 FILLER_34_189
*920 FILLER_34_195
*921 FILLER_34_197
*922 FILLER_34_209
*923 FILLER_34_221
*924 FILLER_34_233
*925 FILLER_34_245
*926 FILLER_34_251
*927 FILLER_34_253
*928 FILLER_34_265
*929 FILLER_34_27
*930 FILLER_34_277
*931 FILLER_34_289
*932 FILLER_34_29
*933 FILLER_34_297
*934 FILLER_34_3
*935 FILLER_34_41
*936 FILLER_34_53
*937 FILLER_34_65
*938 FILLER_34_77
*939 FILLER_34_83
*940 FILLER_34_85
*941 FILLER_34_97
*942 FILLER_35_105
*943 FILLER_35_111
*944 FILLER_35_113
*945 FILLER_35_125
*946 FILLER_35_137
*947 FILLER_35_149
*948 FILLER_35_15
*949 FILLER_35_161
*950 FILLER_35_167
*951 FILLER_35_169
*952 FILLER_35_181
*953 FILLER_35_193
*954 FILLER_35_205
*955 FILLER_35_217
*956 FILLER_35_223
*957 FILLER_35_225
*958 FILLER_35_237
*959 FILLER_35_249
*960 FILLER_35_261
*961 FILLER_35_27
*962 FILLER_35_273
*963 FILLER_35_279
*964 FILLER_35_281
*965 FILLER_35_293
*966 FILLER_35_3
*967 FILLER_35_39
*968 FILLER_35_51
*969 FILLER_35_55
*970 FILLER_35_57
*971 FILLER_35_69
*972 FILLER_35_81
*973 FILLER_35_93
*974 FILLER_36_109
*975 FILLER_36_121
*976 FILLER_36_133
*977 FILLER_36_139
*978 FILLER_36_141
*979 FILLER_36_15
*980 FILLER_36_153
*981 FILLER_36_165
*982 FILLER_36_177
*983 FILLER_36_189
*984 FILLER_36_195
*985 FILLER_36_197
*986 FILLER_36_209
*987 FILLER_36_221
*988 FILLER_36_233
*989 FILLER_36_245
*990 FILLER_36_251
*991 FILLER_36_253
*992 FILLER_36_265
*993 FILLER_36_27
*994 FILLER_36_277
*995 FILLER_36_289
*996 FILLER_36_29
*997 FILLER_36_297
*998 FILLER_36_3
*999 FILLER_36_41
*1000 FILLER_36_53
*1001 FILLER_36_65
*1002 FILLER_36_77
*1003 FILLER_36_83
*1004 FILLER_36_85
*1005 FILLER_36_97
*1006 FILLER_37_105
*1007 FILLER_37_111
*1008 FILLER_37_113
*1009 FILLER_37_125
*1010 FILLER_37_137
*1011 FILLER_37_149
*1012 FILLER_37_15
*1013 FILLER_37_161
*1014 FILLER_37_167
*1015 FILLER_37_169
*1016 FILLER_37_181
*1017 FILLER_37_193
*1018 FILLER_37_205
*1019 FILLER_37_217
*1020 FILLER_37_223
*1021 FILLER_37_225
*1022 FILLER_37_237
*1023 FILLER_37_249
*1024 FILLER_37_261
*1025 FILLER_37_27
*1026 FILLER_37_273
*1027 FILLER_37_279
*1028 FILLER_37_281
*1029 FILLER_37_293
*1030 FILLER_37_3
*1031 FILLER_37_39
*1032 FILLER_37_51
*1033 FILLER_37_55
*1034 FILLER_37_57
*1035 FILLER_37_69
*1036 FILLER_37_81
*1037 FILLER_37_93
*1038 FILLER_38_109
*1039 FILLER_38_121
*1040 FILLER_38_133
*1041 FILLER_38_139
*1042 FILLER_38_141
*1043 FILLER_38_15
*1044 FILLER_38_153
*1045 FILLER_38_165
*1046 FILLER_38_177
*1047 FILLER_38_189
*1048 FILLER_38_195
*1049 FILLER_38_197
*1050 FILLER_38_209
*1051 FILLER_38_221
*1052 FILLER_38_233
*1053 FILLER_38_245
*1054 FILLER_38_251
*1055 FILLER_38_253
*1056 FILLER_38_265
*1057 FILLER_38_27
*1058 FILLER_38_277
*1059 FILLER_38_289
*1060 FILLER_38_29
*1061 FILLER_38_297
*1062 FILLER_38_3
*1063 FILLER_38_41
*1064 FILLER_38_53
*1065 FILLER_38_65
*1066 FILLER_38_77
*1067 FILLER_38_83
*1068 FILLER_38_85
*1069 FILLER_38_97
*1070 FILLER_39_105
*1071 FILLER_39_111
*1072 FILLER_39_113
*1073 FILLER_39_125
*1074 FILLER_39_137
*1075 FILLER_39_149
*1076 FILLER_39_161
*1077 FILLER_39_167
*1078 FILLER_39_169
*1079 FILLER_39_181
*1080 FILLER_39_193
*1081 FILLER_39_20
*1082 FILLER_39_205
*1083 FILLER_39_217
*1084 FILLER_39_223
*1085 FILLER_39_225
*1086 FILLER_39_237
*1087 FILLER_39_249
*1088 FILLER_39_261
*1089 FILLER_39_273
*1090 FILLER_39_279
*1091 FILLER_39_281
*1092 FILLER_39_293
*1093 FILLER_39_3
*1094 FILLER_39_32
*1095 FILLER_39_44
*1096 FILLER_39_57
*1097 FILLER_39_69
*1098 FILLER_39_8
*1099 FILLER_39_81
*1100 FILLER_39_93
*1101 FILLER_3_103
*1102 FILLER_3_111
*1103 FILLER_3_113
*1104 FILLER_3_125
*1105 FILLER_3_137
*1106 FILLER_3_14
*1107 FILLER_3_149
*1108 FILLER_3_161
*1109 FILLER_3_167
*1110 FILLER_3_169
*1111 FILLER_3_181
*1112 FILLER_3_193
*1113 FILLER_3_205
*1114 FILLER_3_217
*1115 FILLER_3_223
*1116 FILLER_3_225
*1117 FILLER_3_237
*1118 FILLER_3_249
*1119 FILLER_3_261
*1120 FILLER_3_273
*1121 FILLER_3_279
*1122 FILLER_3_281
*1123 FILLER_3_293
*1124 FILLER_3_3
*1125 FILLER_3_40
*1126 FILLER_3_47
*1127 FILLER_3_54
*1128 FILLER_3_57
*1129 FILLER_3_79
*1130 FILLER_3_91
*1131 FILLER_40_109
*1132 FILLER_40_121
*1133 FILLER_40_133
*1134 FILLER_40_139
*1135 FILLER_40_141
*1136 FILLER_40_15
*1137 FILLER_40_153
*1138 FILLER_40_165
*1139 FILLER_40_177
*1140 FILLER_40_189
*1141 FILLER_40_195
*1142 FILLER_40_197
*1143 FILLER_40_209
*1144 FILLER_40_221
*1145 FILLER_40_233
*1146 FILLER_40_245
*1147 FILLER_40_251
*1148 FILLER_40_253
*1149 FILLER_40_265
*1150 FILLER_40_27
*1151 FILLER_40_277
*1152 FILLER_40_289
*1153 FILLER_40_29
*1154 FILLER_40_297
*1155 FILLER_40_3
*1156 FILLER_40_41
*1157 FILLER_40_53
*1158 FILLER_40_65
*1159 FILLER_40_77
*1160 FILLER_40_83
*1161 FILLER_40_85
*1162 FILLER_40_97
*1163 FILLER_41_105
*1164 FILLER_41_111
*1165 FILLER_41_113
*1166 FILLER_41_125
*1167 FILLER_41_137
*1168 FILLER_41_149
*1169 FILLER_41_15
*1170 FILLER_41_161
*1171 FILLER_41_167
*1172 FILLER_41_169
*1173 FILLER_41_181
*1174 FILLER_41_193
*1175 FILLER_41_205
*1176 FILLER_41_217
*1177 FILLER_41_223
*1178 FILLER_41_225
*1179 FILLER_41_237
*1180 FILLER_41_249
*1181 FILLER_41_261
*1182 FILLER_41_27
*1183 FILLER_41_273
*1184 FILLER_41_279
*1185 FILLER_41_281
*1186 FILLER_41_293
*1187 FILLER_41_3
*1188 FILLER_41_39
*1189 FILLER_41_51
*1190 FILLER_41_55
*1191 FILLER_41_57
*1192 FILLER_41_69
*1193 FILLER_41_81
*1194 FILLER_41_93
*1195 FILLER_42_109
*1196 FILLER_42_121
*1197 FILLER_42_133
*1198 FILLER_42_139
*1199 FILLER_42_141
*1200 FILLER_42_153
*1201 FILLER_42_165
*1202 FILLER_42_177
*1203 FILLER_42_189
*1204 FILLER_42_195
*1205 FILLER_42_197
*1206 FILLER_42_20
*1207 FILLER_42_209
*1208 FILLER_42_221
*1209 FILLER_42_233
*1210 FILLER_42_245
*1211 FILLER_42_251
*1212 FILLER_42_253
*1213 FILLER_42_265
*1214 FILLER_42_277
*1215 FILLER_42_289
*1216 FILLER_42_29
*1217 FILLER_42_297
*1218 FILLER_42_3
*1219 FILLER_42_41
*1220 FILLER_42_53
*1221 FILLER_42_65
*1222 FILLER_42_77
*1223 FILLER_42_8
*1224 FILLER_42_83
*1225 FILLER_42_85
*1226 FILLER_42_97
*1227 FILLER_43_105
*1228 FILLER_43_111
*1229 FILLER_43_113
*1230 FILLER_43_125
*1231 FILLER_43_137
*1232 FILLER_43_149
*1233 FILLER_43_15
*1234 FILLER_43_161
*1235 FILLER_43_167
*1236 FILLER_43_169
*1237 FILLER_43_181
*1238 FILLER_43_193
*1239 FILLER_43_205
*1240 FILLER_43_217
*1241 FILLER_43_223
*1242 FILLER_43_225
*1243 FILLER_43_237
*1244 FILLER_43_249
*1245 FILLER_43_261
*1246 FILLER_43_27
*1247 FILLER_43_273
*1248 FILLER_43_279
*1249 FILLER_43_281
*1250 FILLER_43_293
*1251 FILLER_43_3
*1252 FILLER_43_39
*1253 FILLER_43_51
*1254 FILLER_43_55
*1255 FILLER_43_57
*1256 FILLER_43_69
*1257 FILLER_43_81
*1258 FILLER_43_93
*1259 FILLER_44_109
*1260 FILLER_44_121
*1261 FILLER_44_133
*1262 FILLER_44_139
*1263 FILLER_44_141
*1264 FILLER_44_15
*1265 FILLER_44_153
*1266 FILLER_44_165
*1267 FILLER_44_177
*1268 FILLER_44_189
*1269 FILLER_44_195
*1270 FILLER_44_197
*1271 FILLER_44_209
*1272 FILLER_44_221
*1273 FILLER_44_233
*1274 FILLER_44_245
*1275 FILLER_44_251
*1276 FILLER_44_253
*1277 FILLER_44_265
*1278 FILLER_44_27
*1279 FILLER_44_277
*1280 FILLER_44_289
*1281 FILLER_44_29
*1282 FILLER_44_297
*1283 FILLER_44_3
*1284 FILLER_44_41
*1285 FILLER_44_53
*1286 FILLER_44_65
*1287 FILLER_44_77
*1288 FILLER_44_83
*1289 FILLER_44_85
*1290 FILLER_44_97
*1291 FILLER_45_105
*1292 FILLER_45_111
*1293 FILLER_45_113
*1294 FILLER_45_125
*1295 FILLER_45_137
*1296 FILLER_45_149
*1297 FILLER_45_15
*1298 FILLER_45_161
*1299 FILLER_45_167
*1300 FILLER_45_169
*1301 FILLER_45_181
*1302 FILLER_45_193
*1303 FILLER_45_205
*1304 FILLER_45_217
*1305 FILLER_45_223
*1306 FILLER_45_225
*1307 FILLER_45_237
*1308 FILLER_45_249
*1309 FILLER_45_261
*1310 FILLER_45_27
*1311 FILLER_45_273
*1312 FILLER_45_279
*1313 FILLER_45_281
*1314 FILLER_45_293
*1315 FILLER_45_3
*1316 FILLER_45_39
*1317 FILLER_45_51
*1318 FILLER_45_55
*1319 FILLER_45_57
*1320 FILLER_45_69
*1321 FILLER_45_81
*1322 FILLER_45_93
*1323 FILLER_46_109
*1324 FILLER_46_121
*1325 FILLER_46_133
*1326 FILLER_46_139
*1327 FILLER_46_141
*1328 FILLER_46_153
*1329 FILLER_46_165
*1330 FILLER_46_177
*1331 FILLER_46_189
*1332 FILLER_46_195
*1333 FILLER_46_197
*1334 FILLER_46_20
*1335 FILLER_46_209
*1336 FILLER_46_221
*1337 FILLER_46_233
*1338 FILLER_46_245
*1339 FILLER_46_251
*1340 FILLER_46_253
*1341 FILLER_46_265
*1342 FILLER_46_277
*1343 FILLER_46_289
*1344 FILLER_46_29
*1345 FILLER_46_297
*1346 FILLER_46_3
*1347 FILLER_46_41
*1348 FILLER_46_53
*1349 FILLER_46_65
*1350 FILLER_46_77
*1351 FILLER_46_8
*1352 FILLER_46_83
*1353 FILLER_46_85
*1354 FILLER_46_97
*1355 FILLER_47_105
*1356 FILLER_47_111
*1357 FILLER_47_113
*1358 FILLER_47_125
*1359 FILLER_47_137
*1360 FILLER_47_149
*1361 FILLER_47_15
*1362 FILLER_47_161
*1363 FILLER_47_167
*1364 FILLER_47_169
*1365 FILLER_47_181
*1366 FILLER_47_193
*1367 FILLER_47_205
*1368 FILLER_47_217
*1369 FILLER_47_223
*1370 FILLER_47_225
*1371 FILLER_47_237
*1372 FILLER_47_249
*1373 FILLER_47_261
*1374 FILLER_47_27
*1375 FILLER_47_273
*1376 FILLER_47_279
*1377 FILLER_47_281
*1378 FILLER_47_293
*1379 FILLER_47_3
*1380 FILLER_47_39
*1381 FILLER_47_51
*1382 FILLER_47_55
*1383 FILLER_47_57
*1384 FILLER_47_69
*1385 FILLER_47_81
*1386 FILLER_47_93
*1387 FILLER_48_109
*1388 FILLER_48_121
*1389 FILLER_48_133
*1390 FILLER_48_139
*1391 FILLER_48_141
*1392 FILLER_48_15
*1393 FILLER_48_153
*1394 FILLER_48_165
*1395 FILLER_48_177
*1396 FILLER_48_189
*1397 FILLER_48_195
*1398 FILLER_48_197
*1399 FILLER_48_209
*1400 FILLER_48_221
*1401 FILLER_48_233
*1402 FILLER_48_245
*1403 FILLER_48_251
*1404 FILLER_48_253
*1405 FILLER_48_265
*1406 FILLER_48_27
*1407 FILLER_48_277
*1408 FILLER_48_289
*1409 FILLER_48_29
*1410 FILLER_48_297
*1411 FILLER_48_3
*1412 FILLER_48_41
*1413 FILLER_48_53
*1414 FILLER_48_65
*1415 FILLER_48_77
*1416 FILLER_48_83
*1417 FILLER_48_85
*1418 FILLER_48_97
*1419 FILLER_49_105
*1420 FILLER_49_111
*1421 FILLER_49_113
*1422 FILLER_49_125
*1423 FILLER_49_137
*1424 FILLER_49_149
*1425 FILLER_49_15
*1426 FILLER_49_161
*1427 FILLER_49_167
*1428 FILLER_49_169
*1429 FILLER_49_181
*1430 FILLER_49_193
*1431 FILLER_49_205
*1432 FILLER_49_217
*1433 FILLER_49_223
*1434 FILLER_49_225
*1435 FILLER_49_237
*1436 FILLER_49_249
*1437 FILLER_49_261
*1438 FILLER_49_27
*1439 FILLER_49_273
*1440 FILLER_49_279
*1441 FILLER_49_281
*1442 FILLER_49_293
*1443 FILLER_49_3
*1444 FILLER_49_39
*1445 FILLER_49_51
*1446 FILLER_49_55
*1447 FILLER_49_57
*1448 FILLER_49_69
*1449 FILLER_49_81
*1450 FILLER_49_93
*1451 FILLER_4_109
*1452 FILLER_4_121
*1453 FILLER_4_133
*1454 FILLER_4_139
*1455 FILLER_4_141
*1456 FILLER_4_153
*1457 FILLER_4_165
*1458 FILLER_4_177
*1459 FILLER_4_189
*1460 FILLER_4_195
*1461 FILLER_4_197
*1462 FILLER_4_209
*1463 FILLER_4_221
*1464 FILLER_4_233
*1465 FILLER_4_245
*1466 FILLER_4_251
*1467 FILLER_4_253
*1468 FILLER_4_26
*1469 FILLER_4_265
*1470 FILLER_4_277
*1471 FILLER_4_289
*1472 FILLER_4_29
*1473 FILLER_4_297
*1474 FILLER_4_3
*1475 FILLER_4_51
*1476 FILLER_4_75
*1477 FILLER_4_83
*1478 FILLER_4_85
*1479 FILLER_4_97
*1480 FILLER_50_109
*1481 FILLER_50_121
*1482 FILLER_50_133
*1483 FILLER_50_139
*1484 FILLER_50_141
*1485 FILLER_50_153
*1486 FILLER_50_165
*1487 FILLER_50_177
*1488 FILLER_50_189
*1489 FILLER_50_195
*1490 FILLER_50_197
*1491 FILLER_50_20
*1492 FILLER_50_209
*1493 FILLER_50_221
*1494 FILLER_50_233
*1495 FILLER_50_245
*1496 FILLER_50_251
*1497 FILLER_50_253
*1498 FILLER_50_265
*1499 FILLER_50_277
*1500 FILLER_50_289
*1501 FILLER_50_29
*1502 FILLER_50_297
*1503 FILLER_50_3
*1504 FILLER_50_41
*1505 FILLER_50_53
*1506 FILLER_50_65
*1507 FILLER_50_77
*1508 FILLER_50_8
*1509 FILLER_50_83
*1510 FILLER_50_85
*1511 FILLER_50_97
*1512 FILLER_51_105
*1513 FILLER_51_111
*1514 FILLER_51_113
*1515 FILLER_51_125
*1516 FILLER_51_137
*1517 FILLER_51_149
*1518 FILLER_51_15
*1519 FILLER_51_161
*1520 FILLER_51_167
*1521 FILLER_51_169
*1522 FILLER_51_181
*1523 FILLER_51_193
*1524 FILLER_51_205
*1525 FILLER_51_217
*1526 FILLER_51_223
*1527 FILLER_51_225
*1528 FILLER_51_237
*1529 FILLER_51_249
*1530 FILLER_51_261
*1531 FILLER_51_27
*1532 FILLER_51_273
*1533 FILLER_51_279
*1534 FILLER_51_281
*1535 FILLER_51_293
*1536 FILLER_51_3
*1537 FILLER_51_39
*1538 FILLER_51_51
*1539 FILLER_51_55
*1540 FILLER_51_57
*1541 FILLER_51_69
*1542 FILLER_51_81
*1543 FILLER_51_93
*1544 FILLER_52_109
*1545 FILLER_52_121
*1546 FILLER_52_133
*1547 FILLER_52_139
*1548 FILLER_52_141
*1549 FILLER_52_15
*1550 FILLER_52_153
*1551 FILLER_52_165
*1552 FILLER_52_177
*1553 FILLER_52_189
*1554 FILLER_52_195
*1555 FILLER_52_197
*1556 FILLER_52_209
*1557 FILLER_52_221
*1558 FILLER_52_233
*1559 FILLER_52_245
*1560 FILLER_52_251
*1561 FILLER_52_253
*1562 FILLER_52_265
*1563 FILLER_52_27
*1564 FILLER_52_277
*1565 FILLER_52_289
*1566 FILLER_52_29
*1567 FILLER_52_297
*1568 FILLER_52_3
*1569 FILLER_52_41
*1570 FILLER_52_53
*1571 FILLER_52_65
*1572 FILLER_52_77
*1573 FILLER_52_83
*1574 FILLER_52_85
*1575 FILLER_52_97