*SPEF "ieee 1481-1999"
*DESIGN "user_module_349833797657690706"
*DATE "11:11:11 Fri 11 11, 1111"
*VENDOR "OpenRCX"
*PROGRAM "Parallel Extraction"
*VERSION "1.0"
*DESIGN_FLOW "NAME_SCOPE LOCAL" "PIN_CAP NONE"
*DIVIDER /
*DELIMITER :
*BUS_DELIMITER []
*T_UNIT 1 NS
*C_UNIT 1 PF
*R_UNIT 1 OHM
*L_UNIT 1 HENRY

*NAME_MAP
*1 io_in[0]
*2 io_in[1]
*3 io_in[2]
*4 io_in[3]
*5 io_in[4]
*6 io_in[5]
*7 io_in[6]
*8 io_in[7]
*9 io_out[0]
*10 io_out[1]
*11 net12
*12 net13
*13 io_out[4]
*14 io_out[5]
*15 net14
*16 net15
*19 _000_
*20 _001_
*21 _002_
*22 _003_
*23 _004_
*24 _005_
*25 _006_
*26 _007_
*27 _008_
*28 _009_
*29 _010_
*30 _011_
*31 _012_
*32 _013_
*33 _014_
*34 _015_
*35 _016_
*36 _017_
*37 _018_
*38 _019_
*39 _020_
*40 _021_
*41 _022_
*42 _023_
*43 _024_
*44 _025_
*45 _026_
*46 _027_
*47 _028_
*48 _029_
*49 _030_
*50 _031_
*51 _032_
*52 _033_
*53 _034_
*54 _035_
*55 _036_
*56 _037_
*57 _038_
*58 _039_
*59 _040_
*60 _041_
*61 _042_
*62 _043_
*63 _044_
*64 _045_
*65 _046_
*66 clknet_0__033_
*67 clknet_0_io_in[0]
*68 clknet_1_0__leaf__033_
*69 clknet_1_0__leaf_io_in[0]
*70 clknet_1_1__leaf__033_
*71 clknet_1_1__leaf_io_in[0]
*72 flipflop10\.d
*73 flipflop10\.q
*74 flipflop11\.d
*75 flipflop11\.q
*76 flipflop12\.d
*77 flipflop12\.q
*78 flipflop13\.d
*79 flipflop13\.q
*80 flipflop14\.d
*81 flipflop14\.q
*82 flipflop15\.d
*83 flipflop15\.q
*84 flipflop16\.d
*85 flipflop16\.q
*86 flipflop17\.d
*87 flipflop17\.q
*88 flipflop18\.d
*89 flipflop18\.q
*90 flipflop19\.d
*91 flipflop19\.q
*92 flipflop2\.d
*93 flipflop2\.q
*94 flipflop20\.d
*95 flipflop20\.q
*96 flipflop21\.d
*97 flipflop21\.q
*98 flipflop22\.d
*99 flipflop22\.q
*100 flipflop23\.d
*101 flipflop23\.q
*102 flipflop24\.d
*103 flipflop24\.q
*104 flipflop25\.d
*105 flipflop25\.q
*106 flipflop26\.d
*107 flipflop26\.q
*108 flipflop27\.d
*109 flipflop27\.q
*110 flipflop28\.d
*111 flipflop28\.q
*112 flipflop29\.d
*113 flipflop29\.q
*114 flipflop3\.d
*115 flipflop3\.q
*116 flipflop30\.d
*117 flipflop30\.q
*118 flipflop31\.d
*119 flipflop31\.q
*120 flipflop32\.d
*121 flipflop32\.q
*122 flipflop33\.d
*123 flipflop33\.q
*124 flipflop34\.d
*125 flipflop34\.q
*126 flipflop35\.d
*127 flipflop35\.q
*128 flipflop4\.d
*129 flipflop4\.q
*130 flipflop5\.d
*131 flipflop5\.q
*132 flipflop6\.d
*133 flipflop6\.q
*134 flipflop7\.d
*135 flipflop7\.q
*136 flipflop8\.d
*137 flipflop8\.q
*138 flipflop9\.d
*139 flipflop9\.q
*140 net1
*141 net10
*142 net11
*143 net2
*144 net3
*145 net4
*146 net5
*147 net6
*148 net7
*149 net8
*150 net9
*151 FILLER_0_109
*152 FILLER_0_113
*153 FILLER_0_125
*154 FILLER_0_137
*155 FILLER_0_141
*156 FILLER_0_15
*157 FILLER_0_153
*158 FILLER_0_165
*159 FILLER_0_169
*160 FILLER_0_181
*161 FILLER_0_193
*162 FILLER_0_197
*163 FILLER_0_209
*164 FILLER_0_221
*165 FILLER_0_225
*166 FILLER_0_237
*167 FILLER_0_249
*168 FILLER_0_253
*169 FILLER_0_265
*170 FILLER_0_27
*171 FILLER_0_277
*172 FILLER_0_281
*173 FILLER_0_29
*174 FILLER_0_293
*175 FILLER_0_3
*176 FILLER_0_41
*177 FILLER_0_53
*178 FILLER_0_57
*179 FILLER_0_69
*180 FILLER_0_81
*181 FILLER_0_85
*182 FILLER_0_97
*183 FILLER_10_109
*184 FILLER_10_121
*185 FILLER_10_133
*186 FILLER_10_139
*187 FILLER_10_141
*188 FILLER_10_153
*189 FILLER_10_16
*190 FILLER_10_165
*191 FILLER_10_177
*192 FILLER_10_189
*193 FILLER_10_195
*194 FILLER_10_197
*195 FILLER_10_209
*196 FILLER_10_221
*197 FILLER_10_233
*198 FILLER_10_245
*199 FILLER_10_251
*200 FILLER_10_253
*201 FILLER_10_26
*202 FILLER_10_265
*203 FILLER_10_277
*204 FILLER_10_289
*205 FILLER_10_29
*206 FILLER_10_297
*207 FILLER_10_3
*208 FILLER_10_37
*209 FILLER_10_65
*210 FILLER_10_72
*211 FILLER_10_79
*212 FILLER_10_83
*213 FILLER_10_85
*214 FILLER_10_9
*215 FILLER_10_97
*216 FILLER_11_111
*217 FILLER_11_113
*218 FILLER_11_125
*219 FILLER_11_137
*220 FILLER_11_149
*221 FILLER_11_15
*222 FILLER_11_161
*223 FILLER_11_167
*224 FILLER_11_169
*225 FILLER_11_181
*226 FILLER_11_193
*227 FILLER_11_205
*228 FILLER_11_217
*229 FILLER_11_223
*230 FILLER_11_225
*231 FILLER_11_23
*232 FILLER_11_237
*233 FILLER_11_249
*234 FILLER_11_261
*235 FILLER_11_273
*236 FILLER_11_279
*237 FILLER_11_281
*238 FILLER_11_293
*239 FILLER_11_3
*240 FILLER_11_43
*241 FILLER_11_51
*242 FILLER_11_55
*243 FILLER_11_57
*244 FILLER_11_75
*245 FILLER_11_87
*246 FILLER_11_99
*247 FILLER_12_109
*248 FILLER_12_121
*249 FILLER_12_133
*250 FILLER_12_139
*251 FILLER_12_141
*252 FILLER_12_153
*253 FILLER_12_165
*254 FILLER_12_177
*255 FILLER_12_189
*256 FILLER_12_195
*257 FILLER_12_197
*258 FILLER_12_209
*259 FILLER_12_221
*260 FILLER_12_233
*261 FILLER_12_245
*262 FILLER_12_25
*263 FILLER_12_251
*264 FILLER_12_253
*265 FILLER_12_265
*266 FILLER_12_277
*267 FILLER_12_289
*268 FILLER_12_29
*269 FILLER_12_297
*270 FILLER_12_3
*271 FILLER_12_47
*272 FILLER_12_71
*273 FILLER_12_83
*274 FILLER_12_85
*275 FILLER_12_97
*276 FILLER_13_101
*277 FILLER_13_109
*278 FILLER_13_113
*279 FILLER_13_125
*280 FILLER_13_137
*281 FILLER_13_14
*282 FILLER_13_149
*283 FILLER_13_161
*284 FILLER_13_167
*285 FILLER_13_169
*286 FILLER_13_18
*287 FILLER_13_181
*288 FILLER_13_193
*289 FILLER_13_205
*290 FILLER_13_217
*291 FILLER_13_223
*292 FILLER_13_225
*293 FILLER_13_237
*294 FILLER_13_249
*295 FILLER_13_25
*296 FILLER_13_261
*297 FILLER_13_273
*298 FILLER_13_279
*299 FILLER_13_281
*300 FILLER_13_293
*301 FILLER_13_3
*302 FILLER_13_35
*303 FILLER_13_39
*304 FILLER_13_46
*305 FILLER_13_54
*306 FILLER_13_57
*307 FILLER_13_65
*308 FILLER_13_77
*309 FILLER_13_89
*310 FILLER_14_109
*311 FILLER_14_121
*312 FILLER_14_133
*313 FILLER_14_139
*314 FILLER_14_141
*315 FILLER_14_15
*316 FILLER_14_153
*317 FILLER_14_165
*318 FILLER_14_177
*319 FILLER_14_189
*320 FILLER_14_195
*321 FILLER_14_197
*322 FILLER_14_209
*323 FILLER_14_221
*324 FILLER_14_233
*325 FILLER_14_245
*326 FILLER_14_251
*327 FILLER_14_253
*328 FILLER_14_26
*329 FILLER_14_265
*330 FILLER_14_277
*331 FILLER_14_289
*332 FILLER_14_29
*333 FILLER_14_297
*334 FILLER_14_3
*335 FILLER_14_38
*336 FILLER_14_45
*337 FILLER_14_65
*338 FILLER_14_72
*339 FILLER_14_85
*340 FILLER_14_97
*341 FILLER_15_111
*342 FILLER_15_113
*343 FILLER_15_125
*344 FILLER_15_137
*345 FILLER_15_149
*346 FILLER_15_161
*347 FILLER_15_167
*348 FILLER_15_169
*349 FILLER_15_181
*350 FILLER_15_193
*351 FILLER_15_205
*352 FILLER_15_21
*353 FILLER_15_217
*354 FILLER_15_223
*355 FILLER_15_225
*356 FILLER_15_237
*357 FILLER_15_249
*358 FILLER_15_261
*359 FILLER_15_273
*360 FILLER_15_279
*361 FILLER_15_28
*362 FILLER_15_281
*363 FILLER_15_293
*364 FILLER_15_3
*365 FILLER_15_48
*366 FILLER_15_57
*367 FILLER_15_65
*368 FILLER_15_75
*369 FILLER_15_87
*370 FILLER_15_99
*371 FILLER_16_109
*372 FILLER_16_121
*373 FILLER_16_133
*374 FILLER_16_139
*375 FILLER_16_141
*376 FILLER_16_153
*377 FILLER_16_165
*378 FILLER_16_177
*379 FILLER_16_189
*380 FILLER_16_195
*381 FILLER_16_197
*382 FILLER_16_209
*383 FILLER_16_221
*384 FILLER_16_233
*385 FILLER_16_245
*386 FILLER_16_251
*387 FILLER_16_253
*388 FILLER_16_26
*389 FILLER_16_265
*390 FILLER_16_277
*391 FILLER_16_289
*392 FILLER_16_29
*393 FILLER_16_297
*394 FILLER_16_3
*395 FILLER_16_43
*396 FILLER_16_65
*397 FILLER_16_77
*398 FILLER_16_83
*399 FILLER_16_85
*400 FILLER_16_9
*401 FILLER_16_97
*402 FILLER_17_110
*403 FILLER_17_113
*404 FILLER_17_125
*405 FILLER_17_137
*406 FILLER_17_149
*407 FILLER_17_15
*408 FILLER_17_161
*409 FILLER_17_167
*410 FILLER_17_169
*411 FILLER_17_181
*412 FILLER_17_193
*413 FILLER_17_205
*414 FILLER_17_217
*415 FILLER_17_223
*416 FILLER_17_225
*417 FILLER_17_237
*418 FILLER_17_249
*419 FILLER_17_261
*420 FILLER_17_273
*421 FILLER_17_279
*422 FILLER_17_281
*423 FILLER_17_293
*424 FILLER_17_3
*425 FILLER_17_39
*426 FILLER_17_47
*427 FILLER_17_55
*428 FILLER_17_57
*429 FILLER_17_62
*430 FILLER_17_74
*431 FILLER_17_86
*432 FILLER_17_98
*433 FILLER_18_109
*434 FILLER_18_121
*435 FILLER_18_133
*436 FILLER_18_139
*437 FILLER_18_141
*438 FILLER_18_153
*439 FILLER_18_16
*440 FILLER_18_165
*441 FILLER_18_177
*442 FILLER_18_189
*443 FILLER_18_195
*444 FILLER_18_197
*445 FILLER_18_209
*446 FILLER_18_221
*447 FILLER_18_233
*448 FILLER_18_24
*449 FILLER_18_245
*450 FILLER_18_251
*451 FILLER_18_253
*452 FILLER_18_265
*453 FILLER_18_277
*454 FILLER_18_289
*455 FILLER_18_29
*456 FILLER_18_297
*457 FILLER_18_3
*458 FILLER_18_36
*459 FILLER_18_40
*460 FILLER_18_44
*461 FILLER_18_56
*462 FILLER_18_68
*463 FILLER_18_80
*464 FILLER_18_85
*465 FILLER_18_97
*466 FILLER_19_105
*467 FILLER_19_111
*468 FILLER_19_113
*469 FILLER_19_125
*470 FILLER_19_137
*471 FILLER_19_149
*472 FILLER_19_161
*473 FILLER_19_167
*474 FILLER_19_169
*475 FILLER_19_181
*476 FILLER_19_193
*477 FILLER_19_205
*478 FILLER_19_21
*479 FILLER_19_217
*480 FILLER_19_223
*481 FILLER_19_225
*482 FILLER_19_237
*483 FILLER_19_249
*484 FILLER_19_261
*485 FILLER_19_273
*486 FILLER_19_279
*487 FILLER_19_281
*488 FILLER_19_293
*489 FILLER_19_3
*490 FILLER_19_45
*491 FILLER_19_52
*492 FILLER_19_57
*493 FILLER_19_69
*494 FILLER_19_81
*495 FILLER_19_93
*496 FILLER_1_105
*497 FILLER_1_111
*498 FILLER_1_113
*499 FILLER_1_125
*500 FILLER_1_137
*501 FILLER_1_149
*502 FILLER_1_15
*503 FILLER_1_161
*504 FILLER_1_167
*505 FILLER_1_169
*506 FILLER_1_181
*507 FILLER_1_193
*508 FILLER_1_205
*509 FILLER_1_217
*510 FILLER_1_223
*511 FILLER_1_225
*512 FILLER_1_237
*513 FILLER_1_249
*514 FILLER_1_261
*515 FILLER_1_27
*516 FILLER_1_273
*517 FILLER_1_279
*518 FILLER_1_281
*519 FILLER_1_293
*520 FILLER_1_3
*521 FILLER_1_39
*522 FILLER_1_51
*523 FILLER_1_55
*524 FILLER_1_57
*525 FILLER_1_69
*526 FILLER_1_81
*527 FILLER_1_93
*528 FILLER_20_109
*529 FILLER_20_121
*530 FILLER_20_133
*531 FILLER_20_139
*532 FILLER_20_141
*533 FILLER_20_153
*534 FILLER_20_165
*535 FILLER_20_177
*536 FILLER_20_189
*537 FILLER_20_195
*538 FILLER_20_197
*539 FILLER_20_209
*540 FILLER_20_221
*541 FILLER_20_233
*542 FILLER_20_245
*543 FILLER_20_251
*544 FILLER_20_253
*545 FILLER_20_26
*546 FILLER_20_265
*547 FILLER_20_277
*548 FILLER_20_289
*549 FILLER_20_29
*550 FILLER_20_297
*551 FILLER_20_3
*552 FILLER_20_36
*553 FILLER_20_43
*554 FILLER_20_50
*555 FILLER_20_62
*556 FILLER_20_74
*557 FILLER_20_82
*558 FILLER_20_85
*559 FILLER_20_9
*560 FILLER_20_97
*561 FILLER_21_105
*562 FILLER_21_111
*563 FILLER_21_113
*564 FILLER_21_125
*565 FILLER_21_137
*566 FILLER_21_149
*567 FILLER_21_161
*568 FILLER_21_167
*569 FILLER_21_169
*570 FILLER_21_17
*571 FILLER_21_181
*572 FILLER_21_193
*573 FILLER_21_205
*574 FILLER_21_217
*575 FILLER_21_223
*576 FILLER_21_225
*577 FILLER_21_23
*578 FILLER_21_237
*579 FILLER_21_249
*580 FILLER_21_261
*581 FILLER_21_273
*582 FILLER_21_279
*583 FILLER_21_281
*584 FILLER_21_293
*585 FILLER_21_3
*586 FILLER_21_30
*587 FILLER_21_38
*588 FILLER_21_42
*589 FILLER_21_49
*590 FILLER_21_55
*591 FILLER_21_57
*592 FILLER_21_69
*593 FILLER_21_81
*594 FILLER_21_9
*595 FILLER_21_93
*596 FILLER_22_109
*597 FILLER_22_121
*598 FILLER_22_133
*599 FILLER_22_139
*600 FILLER_22_141
*601 FILLER_22_153
*602 FILLER_22_165
*603 FILLER_22_177
*604 FILLER_22_189
*605 FILLER_22_195
*606 FILLER_22_197
*607 FILLER_22_209
*608 FILLER_22_21
*609 FILLER_22_221
*610 FILLER_22_233
*611 FILLER_22_245
*612 FILLER_22_251
*613 FILLER_22_253
*614 FILLER_22_265
*615 FILLER_22_27
*616 FILLER_22_277
*617 FILLER_22_289
*618 FILLER_22_29
*619 FILLER_22_297
*620 FILLER_22_3
*621 FILLER_22_47
*622 FILLER_22_56
*623 FILLER_22_63
*624 FILLER_22_75
*625 FILLER_22_83
*626 FILLER_22_85
*627 FILLER_22_97
*628 FILLER_23_111
*629 FILLER_23_113
*630 FILLER_23_125
*631 FILLER_23_137
*632 FILLER_23_149
*633 FILLER_23_161
*634 FILLER_23_167
*635 FILLER_23_169
*636 FILLER_23_17
*637 FILLER_23_181
*638 FILLER_23_193
*639 FILLER_23_205
*640 FILLER_23_217
*641 FILLER_23_223
*642 FILLER_23_225
*643 FILLER_23_237
*644 FILLER_23_249
*645 FILLER_23_261
*646 FILLER_23_273
*647 FILLER_23_279
*648 FILLER_23_281
*649 FILLER_23_293
*650 FILLER_23_3
*651 FILLER_23_34
*652 FILLER_23_54
*653 FILLER_23_57
*654 FILLER_23_75
*655 FILLER_23_87
*656 FILLER_23_9
*657 FILLER_23_99
*658 FILLER_24_10
*659 FILLER_24_109
*660 FILLER_24_121
*661 FILLER_24_133
*662 FILLER_24_139
*663 FILLER_24_141
*664 FILLER_24_153
*665 FILLER_24_165
*666 FILLER_24_177
*667 FILLER_24_18
*668 FILLER_24_189
*669 FILLER_24_195
*670 FILLER_24_197
*671 FILLER_24_209
*672 FILLER_24_221
*673 FILLER_24_233
*674 FILLER_24_245
*675 FILLER_24_251
*676 FILLER_24_253
*677 FILLER_24_26
*678 FILLER_24_265
*679 FILLER_24_277
*680 FILLER_24_289
*681 FILLER_24_29
*682 FILLER_24_297
*683 FILLER_24_3
*684 FILLER_24_36
*685 FILLER_24_45
*686 FILLER_24_52
*687 FILLER_24_60
*688 FILLER_24_66
*689 FILLER_24_73
*690 FILLER_24_81
*691 FILLER_24_85
*692 FILLER_24_97
*693 FILLER_25_111
*694 FILLER_25_113
*695 FILLER_25_125
*696 FILLER_25_137
*697 FILLER_25_149
*698 FILLER_25_161
*699 FILLER_25_167
*700 FILLER_25_169
*701 FILLER_25_18
*702 FILLER_25_181
*703 FILLER_25_193
*704 FILLER_25_205
*705 FILLER_25_217
*706 FILLER_25_223
*707 FILLER_25_225
*708 FILLER_25_237
*709 FILLER_25_249
*710 FILLER_25_261
*711 FILLER_25_27
*712 FILLER_25_273
*713 FILLER_25_279
*714 FILLER_25_281
*715 FILLER_25_293
*716 FILLER_25_3
*717 FILLER_25_31
*718 FILLER_25_35
*719 FILLER_25_44
*720 FILLER_25_51
*721 FILLER_25_55
*722 FILLER_25_57
*723 FILLER_25_75
*724 FILLER_25_87
*725 FILLER_25_9
*726 FILLER_25_99
*727 FILLER_26_109
*728 FILLER_26_11
*729 FILLER_26_121
*730 FILLER_26_133
*731 FILLER_26_139
*732 FILLER_26_141
*733 FILLER_26_153
*734 FILLER_26_165
*735 FILLER_26_177
*736 FILLER_26_189
*737 FILLER_26_19
*738 FILLER_26_195
*739 FILLER_26_197
*740 FILLER_26_209
*741 FILLER_26_221
*742 FILLER_26_233
*743 FILLER_26_245
*744 FILLER_26_251
*745 FILLER_26_253
*746 FILLER_26_26
*747 FILLER_26_265
*748 FILLER_26_277
*749 FILLER_26_289
*750 FILLER_26_29
*751 FILLER_26_297
*752 FILLER_26_3
*753 FILLER_26_47
*754 FILLER_26_55
*755 FILLER_26_59
*756 FILLER_26_71
*757 FILLER_26_83
*758 FILLER_26_85
*759 FILLER_26_97
*760 FILLER_27_100
*761 FILLER_27_113
*762 FILLER_27_125
*763 FILLER_27_137
*764 FILLER_27_149
*765 FILLER_27_15
*766 FILLER_27_161
*767 FILLER_27_167
*768 FILLER_27_169
*769 FILLER_27_181
*770 FILLER_27_193
*771 FILLER_27_205
*772 FILLER_27_217
*773 FILLER_27_223
*774 FILLER_27_225
*775 FILLER_27_237
*776 FILLER_27_249
*777 FILLER_27_25
*778 FILLER_27_261
*779 FILLER_27_273
*780 FILLER_27_279
*781 FILLER_27_281
*782 FILLER_27_293
*783 FILLER_27_3
*784 FILLER_27_33
*785 FILLER_27_37
*786 FILLER_27_54
*787 FILLER_27_57
*788 FILLER_27_64
*789 FILLER_27_76
*790 FILLER_27_88
*791 FILLER_28_109
*792 FILLER_28_121
*793 FILLER_28_133
*794 FILLER_28_139
*795 FILLER_28_141
*796 FILLER_28_153
*797 FILLER_28_165
*798 FILLER_28_177
*799 FILLER_28_189
*800 FILLER_28_195
*801 FILLER_28_197
*802 FILLER_28_209
*803 FILLER_28_221
*804 FILLER_28_233
*805 FILLER_28_24
*806 FILLER_28_245
*807 FILLER_28_251
*808 FILLER_28_253
*809 FILLER_28_265
*810 FILLER_28_277
*811 FILLER_28_289
*812 FILLER_28_29
*813 FILLER_28_297
*814 FILLER_28_3
*815 FILLER_28_36
*816 FILLER_28_47
*817 FILLER_28_69
*818 FILLER_28_7
*819 FILLER_28_81
*820 FILLER_28_85
*821 FILLER_28_97
*822 FILLER_29_110
*823 FILLER_29_113
*824 FILLER_29_125
*825 FILLER_29_137
*826 FILLER_29_149
*827 FILLER_29_161
*828 FILLER_29_167
*829 FILLER_29_169
*830 FILLER_29_18
*831 FILLER_29_181
*832 FILLER_29_193
*833 FILLER_29_205
*834 FILLER_29_217
*835 FILLER_29_22
*836 FILLER_29_223
*837 FILLER_29_225
*838 FILLER_29_237
*839 FILLER_29_249
*840 FILLER_29_261
*841 FILLER_29_273
*842 FILLER_29_279
*843 FILLER_29_281
*844 FILLER_29_293
*845 FILLER_29_3
*846 FILLER_29_39
*847 FILLER_29_46
*848 FILLER_29_50
*849 FILLER_29_54
*850 FILLER_29_57
*851 FILLER_29_65
*852 FILLER_29_7
*853 FILLER_29_74
*854 FILLER_29_86
*855 FILLER_29_98
*856 FILLER_2_109
*857 FILLER_2_121
*858 FILLER_2_133
*859 FILLER_2_139
*860 FILLER_2_141
*861 FILLER_2_15
*862 FILLER_2_153
*863 FILLER_2_165
*864 FILLER_2_177
*865 FILLER_2_189
*866 FILLER_2_19
*867 FILLER_2_195
*868 FILLER_2_197
*869 FILLER_2_209
*870 FILLER_2_221
*871 FILLER_2_233
*872 FILLER_2_245
*873 FILLER_2_251
*874 FILLER_2_253
*875 FILLER_2_26
*876 FILLER_2_265
*877 FILLER_2_277
*878 FILLER_2_289
*879 FILLER_2_29
*880 FILLER_2_297
*881 FILLER_2_3
*882 FILLER_2_34
*883 FILLER_2_42
*884 FILLER_2_65
*885 FILLER_2_77
*886 FILLER_2_83
*887 FILLER_2_85
*888 FILLER_2_9
*889 FILLER_2_97
*890 FILLER_30_109
*891 FILLER_30_12
*892 FILLER_30_121
*893 FILLER_30_133
*894 FILLER_30_139
*895 FILLER_30_141
*896 FILLER_30_153
*897 FILLER_30_165
*898 FILLER_30_177
*899 FILLER_30_189
*900 FILLER_30_195
*901 FILLER_30_197
*902 FILLER_30_209
*903 FILLER_30_221
*904 FILLER_30_233
*905 FILLER_30_24
*906 FILLER_30_245
*907 FILLER_30_251
*908 FILLER_30_253
*909 FILLER_30_265
*910 FILLER_30_277
*911 FILLER_30_289
*912 FILLER_30_29
*913 FILLER_30_297
*914 FILLER_30_3
*915 FILLER_30_33
*916 FILLER_30_50
*917 FILLER_30_70
*918 FILLER_30_82
*919 FILLER_30_85
*920 FILLER_30_97
*921 FILLER_31_105
*922 FILLER_31_111
*923 FILLER_31_113
*924 FILLER_31_125
*925 FILLER_31_137
*926 FILLER_31_149
*927 FILLER_31_161
*928 FILLER_31_167
*929 FILLER_31_169
*930 FILLER_31_181
*931 FILLER_31_193
*932 FILLER_31_205
*933 FILLER_31_21
*934 FILLER_31_217
*935 FILLER_31_223
*936 FILLER_31_225
*937 FILLER_31_237
*938 FILLER_31_249
*939 FILLER_31_261
*940 FILLER_31_273
*941 FILLER_31_279
*942 FILLER_31_281
*943 FILLER_31_29
*944 FILLER_31_293
*945 FILLER_31_3
*946 FILLER_31_34
*947 FILLER_31_45
*948 FILLER_31_52
*949 FILLER_31_57
*950 FILLER_31_69
*951 FILLER_31_81
*952 FILLER_31_93
*953 FILLER_32_109
*954 FILLER_32_121
*955 FILLER_32_133
*956 FILLER_32_139
*957 FILLER_32_141
*958 FILLER_32_15
*959 FILLER_32_153
*960 FILLER_32_165
*961 FILLER_32_177
*962 FILLER_32_189
*963 FILLER_32_195
*964 FILLER_32_197
*965 FILLER_32_209
*966 FILLER_32_221
*967 FILLER_32_233
*968 FILLER_32_245
*969 FILLER_32_251
*970 FILLER_32_253
*971 FILLER_32_265
*972 FILLER_32_27
*973 FILLER_32_277
*974 FILLER_32_289
*975 FILLER_32_29
*976 FILLER_32_297
*977 FILLER_32_3
*978 FILLER_32_41
*979 FILLER_32_53
*980 FILLER_32_65
*981 FILLER_32_77
*982 FILLER_32_83
*983 FILLER_32_85
*984 FILLER_32_97
*985 FILLER_33_105
*986 FILLER_33_111
*987 FILLER_33_113
*988 FILLER_33_125
*989 FILLER_33_137
*990 FILLER_33_149
*991 FILLER_33_161
*992 FILLER_33_167
*993 FILLER_33_169
*994 FILLER_33_181
*995 FILLER_33_193
*996 FILLER_33_205
*997 FILLER_33_21
*998 FILLER_33_217
*999 FILLER_33_223
*1000 FILLER_33_225
*1001 FILLER_33_237
*1002 FILLER_33_249
*1003 FILLER_33_261
*1004 FILLER_33_273
*1005 FILLER_33_279
*1006 FILLER_33_281
*1007 FILLER_33_293
*1008 FILLER_33_3
*1009 FILLER_33_33
*1010 FILLER_33_45
*1011 FILLER_33_53
*1012 FILLER_33_57
*1013 FILLER_33_69
*1014 FILLER_33_81
*1015 FILLER_33_9
*1016 FILLER_33_93
*1017 FILLER_34_109
*1018 FILLER_34_121
*1019 FILLER_34_133
*1020 FILLER_34_139
*1021 FILLER_34_141
*1022 FILLER_34_15
*1023 FILLER_34_153
*1024 FILLER_34_165
*1025 FILLER_34_177
*1026 FILLER_34_189
*1027 FILLER_34_195
*1028 FILLER_34_197
*1029 FILLER_34_209
*1030 FILLER_34_221
*1031 FILLER_34_233
*1032 FILLER_34_245
*1033 FILLER_34_251
*1034 FILLER_34_253
*1035 FILLER_34_265
*1036 FILLER_34_27
*1037 FILLER_34_277
*1038 FILLER_34_289
*1039 FILLER_34_29
*1040 FILLER_34_297
*1041 FILLER_34_3
*1042 FILLER_34_41
*1043 FILLER_34_53
*1044 FILLER_34_65
*1045 FILLER_34_77
*1046 FILLER_34_83
*1047 FILLER_34_85
*1048 FILLER_34_97
*1049 FILLER_35_105
*1050 FILLER_35_111
*1051 FILLER_35_113
*1052 FILLER_35_125
*1053 FILLER_35_137
*1054 FILLER_35_149
*1055 FILLER_35_15
*1056 FILLER_35_161
*1057 FILLER_35_167
*1058 FILLER_35_169
*1059 FILLER_35_181
*1060 FILLER_35_193
*1061 FILLER_35_205
*1062 FILLER_35_217
*1063 FILLER_35_223
*1064 FILLER_35_225
*1065 FILLER_35_237
*1066 FILLER_35_249
*1067 FILLER_35_261
*1068 FILLER_35_27
*1069 FILLER_35_273
*1070 FILLER_35_279
*1071 FILLER_35_281
*1072 FILLER_35_293
*1073 FILLER_35_3
*1074 FILLER_35_39
*1075 FILLER_35_51
*1076 FILLER_35_55
*1077 FILLER_35_57
*1078 FILLER_35_69
*1079 FILLER_35_81
*1080 FILLER_35_93
*1081 FILLER_36_109
*1082 FILLER_36_121
*1083 FILLER_36_133
*1084 FILLER_36_139
*1085 FILLER_36_141
*1086 FILLER_36_15
*1087 FILLER_36_153
*1088 FILLER_36_165
*1089 FILLER_36_177
*1090 FILLER_36_189
*1091 FILLER_36_195
*1092 FILLER_36_197
*1093 FILLER_36_209
*1094 FILLER_36_221
*1095 FILLER_36_233
*1096 FILLER_36_245
*1097 FILLER_36_251
*1098 FILLER_36_253
*1099 FILLER_36_265
*1100 FILLER_36_27
*1101 FILLER_36_277
*1102 FILLER_36_289
*1103 FILLER_36_29
*1104 FILLER_36_297
*1105 FILLER_36_3
*1106 FILLER_36_41
*1107 FILLER_36_53
*1108 FILLER_36_65
*1109 FILLER_36_77
*1110 FILLER_36_83
*1111 FILLER_36_85
*1112 FILLER_36_97
*1113 FILLER_37_105
*1114 FILLER_37_111
*1115 FILLER_37_113
*1116 FILLER_37_125
*1117 FILLER_37_137
*1118 FILLER_37_149
*1119 FILLER_37_15
*1120 FILLER_37_161
*1121 FILLER_37_167
*1122 FILLER_37_169
*1123 FILLER_37_181
*1124 FILLER_37_193
*1125 FILLER_37_205
*1126 FILLER_37_217
*1127 FILLER_37_223
*1128 FILLER_37_225
*1129 FILLER_37_237
*1130 FILLER_37_249
*1131 FILLER_37_261
*1132 FILLER_37_27
*1133 FILLER_37_273
*1134 FILLER_37_279
*1135 FILLER_37_281
*1136 FILLER_37_293
*1137 FILLER_37_3
*1138 FILLER_37_39
*1139 FILLER_37_51
*1140 FILLER_37_55
*1141 FILLER_37_57
*1142 FILLER_37_69
*1143 FILLER_37_81
*1144 FILLER_37_93
*1145 FILLER_38_109
*1146 FILLER_38_121
*1147 FILLER_38_133
*1148 FILLER_38_139
*1149 FILLER_38_141
*1150 FILLER_38_15
*1151 FILLER_38_153
*1152 FILLER_38_165
*1153 FILLER_38_177
*1154 FILLER_38_189
*1155 FILLER_38_195
*1156 FILLER_38_197
*1157 FILLER_38_209
*1158 FILLER_38_221
*1159 FILLER_38_233
*1160 FILLER_38_245
*1161 FILLER_38_251
*1162 FILLER_38_253
*1163 FILLER_38_265
*1164 FILLER_38_27
*1165 FILLER_38_277
*1166 FILLER_38_289
*1167 FILLER_38_29
*1168 FILLER_38_297
*1169 FILLER_38_3
*1170 FILLER_38_41
*1171 FILLER_38_53
*1172 FILLER_38_65
*1173 FILLER_38_77
*1174 FILLER_38_83
*1175 FILLER_38_85
*1176 FILLER_38_97
*1177 FILLER_39_105
*1178 FILLER_39_111
*1179 FILLER_39_113
*1180 FILLER_39_125
*1181 FILLER_39_137
*1182 FILLER_39_149
*1183 FILLER_39_161
*1184 FILLER_39_167
*1185 FILLER_39_169
*1186 FILLER_39_181
*1187 FILLER_39_193
*1188 FILLER_39_20
*1189 FILLER_39_205
*1190 FILLER_39_217
*1191 FILLER_39_223
*1192 FILLER_39_225
*1193 FILLER_39_237
*1194 FILLER_39_249
*1195 FILLER_39_261
*1196 FILLER_39_273
*1197 FILLER_39_279
*1198 FILLER_39_281
*1199 FILLER_39_293
*1200 FILLER_39_3
*1201 FILLER_39_32
*1202 FILLER_39_44
*1203 FILLER_39_57
*1204 FILLER_39_69
*1205 FILLER_39_8
*1206 FILLER_39_81
*1207 FILLER_39_93
*1208 FILLER_3_105
*1209 FILLER_3_111
*1210 FILLER_3_113
*1211 FILLER_3_12
*1212 FILLER_3_125
*1213 FILLER_3_137
*1214 FILLER_3_149
*1215 FILLER_3_161
*1216 FILLER_3_167
*1217 FILLER_3_169
*1218 FILLER_3_181
*1219 FILLER_3_193
*1220 FILLER_3_205
*1221 FILLER_3_217
*1222 FILLER_3_223
*1223 FILLER_3_225
*1224 FILLER_3_237
*1225 FILLER_3_249
*1226 FILLER_3_261
*1227 FILLER_3_273
*1228 FILLER_3_279
*1229 FILLER_3_281
*1230 FILLER_3_293
*1231 FILLER_3_3
*1232 FILLER_3_36
*1233 FILLER_3_48
*1234 FILLER_3_57
*1235 FILLER_3_69
*1236 FILLER_3_81
*1237 FILLER_3_93
*1238 FILLER_40_109
*1239 FILLER_40_121
*1240 FILLER_40_133
*1241 FILLER_40_139
*1242 FILLER_40_141
*1243 FILLER_40_15
*1244 FILLER_40_153
*1245 FILLER_40_165
*1246 FILLER_40_177
*1247 FILLER_40_189
*1248 FILLER_40_195
*1249 FILLER_40_197
*1250 FILLER_40_209
*1251 FILLER_40_221
*1252 FILLER_40_233
*1253 FILLER_40_245
*1254 FILLER_40_251
*1255 FILLER_40_253
*1256 FILLER_40_265
*1257 FILLER_40_27
*1258 FILLER_40_277
*1259 FILLER_40_289
*1260 FILLER_40_29
*1261 FILLER_40_297
*1262 FILLER_40_3
*1263 FILLER_40_41
*1264 FILLER_40_53
*1265 FILLER_40_65
*1266 FILLER_40_77
*1267 FILLER_40_83
*1268 FILLER_40_85
*1269 FILLER_40_97
*1270 FILLER_41_105
*1271 FILLER_41_111
*1272 FILLER_41_113
*1273 FILLER_41_125
*1274 FILLER_41_137
*1275 FILLER_41_149
*1276 FILLER_41_15
*1277 FILLER_41_161
*1278 FILLER_41_167
*1279 FILLER_41_169
*1280 FILLER_41_181
*1281 FILLER_41_193
*1282 FILLER_41_205
*1283 FILLER_41_217
*1284 FILLER_41_223
*1285 FILLER_41_225
*1286 FILLER_41_237
*1287 FILLER_41_249
*1288 FILLER_41_261
*1289 FILLER_41_27
*1290 FILLER_41_273
*1291 FILLER_41_279
*1292 FILLER_41_281
*1293 FILLER_41_293
*1294 FILLER_41_3
*1295 FILLER_41_39
*1296 FILLER_41_51
*1297 FILLER_41_55
*1298 FILLER_41_57
*1299 FILLER_41_69
*1300 FILLER_41_81
*1301 FILLER_41_93
*1302 FILLER_42_109
*1303 FILLER_42_121
*1304 FILLER_42_133
*1305 FILLER_42_139
*1306 FILLER_42_141
*1307 FILLER_42_153
*1308 FILLER_42_165
*1309 FILLER_42_177
*1310 FILLER_42_189
*1311 FILLER_42_195
*1312 FILLER_42_197
*1313 FILLER_42_20
*1314 FILLER_42_209
*1315 FILLER_42_221
*1316 FILLER_42_233
*1317 FILLER_42_245
*1318 FILLER_42_251
*1319 FILLER_42_253
*1320 FILLER_42_265
*1321 FILLER_42_277
*1322 FILLER_42_289
*1323 FILLER_42_29
*1324 FILLER_42_297
*1325 FILLER_42_3
*1326 FILLER_42_41
*1327 FILLER_42_53
*1328 FILLER_42_65
*1329 FILLER_42_77
*1330 FILLER_42_8
*1331 FILLER_42_83
*1332 FILLER_42_85
*1333 FILLER_42_97
*1334 FILLER_43_105
*1335 FILLER_43_111
*1336 FILLER_43_113
*1337 FILLER_43_125
*1338 FILLER_43_137
*1339 FILLER_43_149
*1340 FILLER_43_15
*1341 FILLER_43_161
*1342 FILLER_43_167
*1343 FILLER_43_169
*1344 FILLER_43_181
*1345 FILLER_43_193
*1346 FILLER_43_205
*1347 FILLER_43_217
*1348 FILLER_43_223
*1349 FILLER_43_225
*1350 FILLER_43_237
*1351 FILLER_43_249
*1352 FILLER_43_261
*1353 FILLER_43_27
*1354 FILLER_43_273
*1355 FILLER_43_279
*1356 FILLER_43_281
*1357 FILLER_43_293
*1358 FILLER_43_3
*1359 FILLER_43_39
*1360 FILLER_43_51
*1361 FILLER_43_55
*1362 FILLER_43_57
*1363 FILLER_43_69
*1364 FILLER_43_81
*1365 FILLER_43_93
*1366 FILLER_44_109
*1367 FILLER_44_121
*1368 FILLER_44_133
*1369 FILLER_44_139
*1370 FILLER_44_141
*1371 FILLER_44_15
*1372 FILLER_44_153
*1373 FILLER_44_165
*1374 FILLER_44_177
*1375 FILLER_44_189
*1376 FILLER_44_195
*1377 FILLER_44_197
*1378 FILLER_44_209
*1379 FILLER_44_221
*1380 FILLER_44_233
*1381 FILLER_44_245
*1382 FILLER_44_251
*1383 FILLER_44_253
*1384 FILLER_44_265
*1385 FILLER_44_27
*1386 FILLER_44_277
*1387 FILLER_44_289
*1388 FILLER_44_29
*1389 FILLER_44_297
*1390 FILLER_44_3
*1391 FILLER_44_41
*1392 FILLER_44_53
*1393 FILLER_44_65
*1394 FILLER_44_77
*1395 FILLER_44_83
*1396 FILLER_44_85
*1397 FILLER_44_97
*1398 FILLER_45_105
*1399 FILLER_45_111
*1400 FILLER_45_113
*1401 FILLER_45_125
*1402 FILLER_45_137
*1403 FILLER_45_149
*1404 FILLER_45_15
*1405 FILLER_45_161
*1406 FILLER_45_167
*1407 FILLER_45_169
*1408 FILLER_45_181
*1409 FILLER_45_193
*1410 FILLER_45_205
*1411 FILLER_45_217
*1412 FILLER_45_223
*1413 FILLER_45_225
*1414 FILLER_45_237
*1415 FILLER_45_249
*1416 FILLER_45_261
*1417 FILLER_45_27
*1418 FILLER_45_273
*1419 FILLER_45_279
*1420 FILLER_45_281
*1421 FILLER_45_293
*1422 FILLER_45_3
*1423 FILLER_45_39
*1424 FILLER_45_51
*1425 FILLER_45_55
*1426 FILLER_45_57
*1427 FILLER_45_69
*1428 FILLER_45_81
*1429 FILLER_45_93
*1430 FILLER_46_109
*1431 FILLER_46_121
*1432 FILLER_46_133
*1433 FILLER_46_139
*1434 FILLER_46_141
*1435 FILLER_46_15
*1436 FILLER_46_153
*1437 FILLER_46_165
*1438 FILLER_46_177
*1439 FILLER_46_189
*1440 FILLER_46_195
*1441 FILLER_46_197
*1442 FILLER_46_209
*1443 FILLER_46_221
*1444 FILLER_46_233
*1445 FILLER_46_245
*1446 FILLER_46_251
*1447 FILLER_46_253
*1448 FILLER_46_265
*1449 FILLER_46_27
*1450 FILLER_46_277
*1451 FILLER_46_289
*1452 FILLER_46_29
*1453 FILLER_46_297
*1454 FILLER_46_3
*1455 FILLER_46_41
*1456 FILLER_46_53
*1457 FILLER_46_65
*1458 FILLER_46_77
*1459 FILLER_46_83
*1460 FILLER_46_85
*1461 FILLER_46_97
*1462 FILLER_47_105
*1463 FILLER_47_111
*1464 FILLER_47_113
*1465 FILLER_47_125
*1466 FILLER_47_137
*1467 FILLER_47_149
*1468 FILLER_47_15
*1469 FILLER_47_161
*1470 FILLER_47_167
*1471 FILLER_47_169
*1472 FILLER_47_181
*1473 FILLER_47_193
*1474 FILLER_47_205
*1475 FILLER_47_217
*1476 FILLER_47_223
*1477 FILLER_47_225
*1478 FILLER_47_237
*1479 FILLER_47_249
*1480 FILLER_47_261
*1481 FILLER_47_27
*1482 FILLER_47_273
*1483 FILLER_47_279
*1484 FILLER_47_281
*1485 FILLER_47_293
*1486 FILLER_47_3
*1487 FILLER_47_39
*1488 FILLER_47_51
*1489 FILLER_47_55
*1490 FILLER_47_57
*1491 FILLER_47_69
*1492 FILLER_47_81
*1493 FILLER_47_93
*1494 FILLER_48_109
*1495 FILLER_48_121
*1496 FILLER_48_133
*1497 FILLER_48_139
*1498 FILLER_48_141
*1499 FILLER_48_15
*1500 FILLER_48_153
*1501 FILLER_48_165
*1502 FILLER_48_177
*1503 FILLER_48_189
*1504 FILLER_48_195
*1505 FILLER_48_197
*1506 FILLER_48_209
*1507 FILLER_48_221
*1508 FILLER_48_233
*1509 FILLER_48_245
*1510 FILLER_48_251
*1511 FILLER_48_253
*1512 FILLER_48_265
*1513 FILLER_48_27
*1514 FILLER_48_277
*1515 FILLER_48_289
*1516 FILLER_48_29
*1517 FILLER_48_297
*1518 FILLER_48_3
*1519 FILLER_48_41
*1520 FILLER_48_53
*1521 FILLER_48_65
*1522 FILLER_48_77
*1523 FILLER_48_83
*1524 FILLER_48_85
*1525 FILLER_48_97
*1526 FILLER_49_105
*1527 FILLER_49_111
*1528 FILLER_49_113
*1529 FILLER_49_125
*1530 FILLER_49_137
*1531 FILLER_49_149
*1532 FILLER_49_15
*1533 FILLER_49_161
*1534 FILLER_49_167
*1535 FILLER_49_169
*1536 FILLER_49_181
*1537 FILLER_49_193
*1538 FILLER_49_205
*1539 FILLER_49_217
*1540 FILLER_49_223
*1541 FILLER_49_225
*1542 FILLER_49_237
*1543 FILLER_49_249
*1544 FILLER_49_261
*1545 FILLER_49_27
*1546 FILLER_49_273
*1547 FILLER_49_279
*1548 FILLER_49_281
*1549 FILLER_49_293
*1550 FILLER_49_3
*1551 FILLER_49_39
*1552 FILLER_49_51
*1553 FILLER_49_55
*1554 FILLER_49_57
*1555 FILLER_49_69
*1556 FILLER_49_81
*1557 FILLER_49_93
*1558 FILLER_4_109
*1559 FILLER_4_121
*1560 FILLER_4_133
*1561 FILLER_4_139
*1562 FILLER_4_141
*1563 FILLER_4_15
*1564 FILLER_4_153
*1565 FILLER_4_165
*1566 FILLER_4_177
*1567 FILLER_4_189
*1568 FILLER_4_19
*1569 FILLER_4_195
*1570 FILLER_4_197
*1571 FILLER_4_209
*1572 FILLER_4_221
*1573 FILLER_4_233
*1574 FILLER_4_245
*1575 FILLER_4_251
*1576 FILLER_4_253
*1577 FILLER_4_26
*1578 FILLER_4_265
*1579 FILLER_4_277
*1580 FILLER_4_289
*1581 FILLER_4_29
*1582 FILLER_4_297
*1583 FILLER_4_3
*1584 FILLER_4_47
*1585 FILLER_4_59
*1586 FILLER_4_71
*1587 FILLER_4_83
*1588 FILLER_4_85
*1589 FILLER_4_97
*1590 FILLER_50_109
*1591 FILLER_50_121
*1592 FILLER_50_133
*1593 FILLER_50_139
*1594 FILLER_50_141
*1595 FILLER_50_15
*1596 FILLER_50_153
*1597 FILLER_50_165
*1598 FILLER_50_177
*1599 FILLER_50_189
*1600 FILLER_50_195
*1601 FILLER_50_197
*1602 FILLER_50_209