*SPEF "ieee 1481-1999"
*DESIGN "user_module_341546888233747026"
*DATE "11:11:11 Fri 11 11, 1111"
*VENDOR "OpenRCX"
*PROGRAM "Parallel Extraction"
*VERSION "1.0"
*DESIGN_FLOW "NAME_SCOPE LOCAL" "PIN_CAP NONE"
*DIVIDER /
*DELIMITER :
*BUS_DELIMITER []
*T_UNIT 1 NS
*C_UNIT 1 PF
*R_UNIT 1 OHM
*L_UNIT 1 HENRY

*NAME_MAP
*1 io_in[0]
*2 io_in[1]
*3 io_in[2]
*4 io_in[3]
*5 io_in[4]
*6 io_in[5]
*7 io_in[6]
*8 io_in[7]
*9 io_out[0]
*10 io_out[1]
*11 io_out[2]
*12 io_out[3]
*13 io_out[4]
*14 io_out[5]
*15 io_out[6]
*16 io_out[7]
*19 _00_
*20 _01_
*21 _02_
*22 _03_
*23 _04_
*24 _05_
*25 _06_
*26 _07_
*27 _08_
*28 _09_
*29 _10_
*30 _11_
*31 _12_
*32 _13_
*33 _14_
*34 _15_
*35 _16_
*36 _17_
*37 _18_
*38 _19_
*39 _21_
*40 _22_
*41 clknet_0__00_
*42 clknet_0__02_
*43 clknet_0__04_
*44 clknet_0__09_
*45 clknet_0__10_
*46 clknet_0__11_
*47 clknet_0__12_
*48 clknet_0__13_
*49 clknet_0__14_
*50 clknet_0__18_
*51 clknet_0__19_
*52 clknet_0_io_in[0]
*53 clknet_1_0__leaf__00_
*54 clknet_1_0__leaf__02_
*55 clknet_1_0__leaf__04_
*56 clknet_1_0__leaf__09_
*57 clknet_1_0__leaf__10_
*58 clknet_1_0__leaf__11_
*59 clknet_1_0__leaf__12_
*60 clknet_1_0__leaf__13_
*61 clknet_1_0__leaf__14_
*62 clknet_1_0__leaf__18_
*63 clknet_1_0__leaf__19_
*64 clknet_1_0__leaf_io_in[0]
*65 clknet_1_1__leaf__00_
*66 clknet_1_1__leaf__02_
*67 clknet_1_1__leaf__04_
*68 clknet_1_1__leaf__09_
*69 clknet_1_1__leaf__10_
*70 clknet_1_1__leaf__11_
*71 clknet_1_1__leaf__12_
*72 clknet_1_1__leaf__13_
*73 clknet_1_1__leaf__14_
*74 clknet_1_1__leaf__18_
*75 clknet_1_1__leaf__19_
*76 clknet_1_1__leaf_io_in[0]
*77 gate27\.out
*78 gate30\.out
*79 gate32\.out
*80 gate36\.out
*81 gate42\.out
*82 gate46\.out
*83 gate52\.out
*84 gate74\.out
*85 net1
*86 net2
*87 net3
*88 net4
*89 net5
*90 net6
*91 net7
*92 net8
*93 net9
*94 FILLER_0_109
*95 FILLER_0_113
*96 FILLER_0_125
*97 FILLER_0_137
*98 FILLER_0_141
*99 FILLER_0_15
*100 FILLER_0_153
*101 FILLER_0_165
*102 FILLER_0_169
*103 FILLER_0_181
*104 FILLER_0_193
*105 FILLER_0_197
*106 FILLER_0_209
*107 FILLER_0_221
*108 FILLER_0_225
*109 FILLER_0_237
*110 FILLER_0_249
*111 FILLER_0_253
*112 FILLER_0_265
*113 FILLER_0_27
*114 FILLER_0_277
*115 FILLER_0_281
*116 FILLER_0_29
*117 FILLER_0_293
*118 FILLER_0_3
*119 FILLER_0_41
*120 FILLER_0_53
*121 FILLER_0_57
*122 FILLER_0_69
*123 FILLER_0_81
*124 FILLER_0_85
*125 FILLER_0_97
*126 FILLER_10_109
*127 FILLER_10_121
*128 FILLER_10_133
*129 FILLER_10_139
*130 FILLER_10_141
*131 FILLER_10_15
*132 FILLER_10_153
*133 FILLER_10_165
*134 FILLER_10_177
*135 FILLER_10_189
*136 FILLER_10_195
*137 FILLER_10_197
*138 FILLER_10_209
*139 FILLER_10_221
*140 FILLER_10_233
*141 FILLER_10_245
*142 FILLER_10_251
*143 FILLER_10_253
*144 FILLER_10_265
*145 FILLER_10_27
*146 FILLER_10_277
*147 FILLER_10_289
*148 FILLER_10_29
*149 FILLER_10_297
*150 FILLER_10_3
*151 FILLER_10_41
*152 FILLER_10_53
*153 FILLER_10_65
*154 FILLER_10_77
*155 FILLER_10_83
*156 FILLER_10_85
*157 FILLER_10_97
*158 FILLER_11_105
*159 FILLER_11_111
*160 FILLER_11_113
*161 FILLER_11_125
*162 FILLER_11_137
*163 FILLER_11_149
*164 FILLER_11_15
*165 FILLER_11_161
*166 FILLER_11_167
*167 FILLER_11_169
*168 FILLER_11_181
*169 FILLER_11_193
*170 FILLER_11_205
*171 FILLER_11_217
*172 FILLER_11_223
*173 FILLER_11_225
*174 FILLER_11_237
*175 FILLER_11_249
*176 FILLER_11_261
*177 FILLER_11_27
*178 FILLER_11_273
*179 FILLER_11_279
*180 FILLER_11_281
*181 FILLER_11_293
*182 FILLER_11_3
*183 FILLER_11_39
*184 FILLER_11_51
*185 FILLER_11_55
*186 FILLER_11_57
*187 FILLER_11_69
*188 FILLER_11_81
*189 FILLER_11_93
*190 FILLER_12_109
*191 FILLER_12_121
*192 FILLER_12_133
*193 FILLER_12_139
*194 FILLER_12_141
*195 FILLER_12_153
*196 FILLER_12_165
*197 FILLER_12_177
*198 FILLER_12_189
*199 FILLER_12_195
*200 FILLER_12_197
*201 FILLER_12_20
*202 FILLER_12_209
*203 FILLER_12_221
*204 FILLER_12_233
*205 FILLER_12_245
*206 FILLER_12_251
*207 FILLER_12_253
*208 FILLER_12_265
*209 FILLER_12_277
*210 FILLER_12_289
*211 FILLER_12_29
*212 FILLER_12_297
*213 FILLER_12_3
*214 FILLER_12_41
*215 FILLER_12_53
*216 FILLER_12_65
*217 FILLER_12_77
*218 FILLER_12_8
*219 FILLER_12_83
*220 FILLER_12_85
*221 FILLER_12_97
*222 FILLER_13_111
*223 FILLER_13_113
*224 FILLER_13_125
*225 FILLER_13_137
*226 FILLER_13_149
*227 FILLER_13_15
*228 FILLER_13_161
*229 FILLER_13_167
*230 FILLER_13_169
*231 FILLER_13_181
*232 FILLER_13_193
*233 FILLER_13_205
*234 FILLER_13_217
*235 FILLER_13_223
*236 FILLER_13_225
*237 FILLER_13_237
*238 FILLER_13_249
*239 FILLER_13_261
*240 FILLER_13_27
*241 FILLER_13_273
*242 FILLER_13_279
*243 FILLER_13_281
*244 FILLER_13_293
*245 FILLER_13_3
*246 FILLER_13_39
*247 FILLER_13_51
*248 FILLER_13_55
*249 FILLER_13_57
*250 FILLER_13_69
*251 FILLER_13_81
*252 FILLER_13_87
*253 FILLER_13_99
*254 FILLER_14_109
*255 FILLER_14_121
*256 FILLER_14_133
*257 FILLER_14_139
*258 FILLER_14_141
*259 FILLER_14_15
*260 FILLER_14_153
*261 FILLER_14_165
*262 FILLER_14_177
*263 FILLER_14_189
*264 FILLER_14_195
*265 FILLER_14_197
*266 FILLER_14_209
*267 FILLER_14_221
*268 FILLER_14_233
*269 FILLER_14_245
*270 FILLER_14_251
*271 FILLER_14_253
*272 FILLER_14_265
*273 FILLER_14_27
*274 FILLER_14_277
*275 FILLER_14_289
*276 FILLER_14_29
*277 FILLER_14_297
*278 FILLER_14_3
*279 FILLER_14_41
*280 FILLER_14_53
*281 FILLER_14_65
*282 FILLER_14_77
*283 FILLER_14_83
*284 FILLER_14_85
*285 FILLER_14_97
*286 FILLER_15_105
*287 FILLER_15_11
*288 FILLER_15_111
*289 FILLER_15_113
*290 FILLER_15_125
*291 FILLER_15_137
*292 FILLER_15_149
*293 FILLER_15_161
*294 FILLER_15_167
*295 FILLER_15_169
*296 FILLER_15_18
*297 FILLER_15_181
*298 FILLER_15_193
*299 FILLER_15_205
*300 FILLER_15_217
*301 FILLER_15_223
*302 FILLER_15_225
*303 FILLER_15_237
*304 FILLER_15_249
*305 FILLER_15_261
*306 FILLER_15_273
*307 FILLER_15_279
*308 FILLER_15_281
*309 FILLER_15_293
*310 FILLER_15_3
*311 FILLER_15_30
*312 FILLER_15_42
*313 FILLER_15_54
*314 FILLER_15_57
*315 FILLER_15_69
*316 FILLER_15_81
*317 FILLER_15_93
*318 FILLER_16_109
*319 FILLER_16_121
*320 FILLER_16_133
*321 FILLER_16_139
*322 FILLER_16_141
*323 FILLER_16_15
*324 FILLER_16_153
*325 FILLER_16_165
*326 FILLER_16_177
*327 FILLER_16_189
*328 FILLER_16_195
*329 FILLER_16_197
*330 FILLER_16_209
*331 FILLER_16_221
*332 FILLER_16_233
*333 FILLER_16_245
*334 FILLER_16_251
*335 FILLER_16_253
*336 FILLER_16_265
*337 FILLER_16_27
*338 FILLER_16_277
*339 FILLER_16_289
*340 FILLER_16_29
*341 FILLER_16_297
*342 FILLER_16_3
*343 FILLER_16_41
*344 FILLER_16_53
*345 FILLER_16_65
*346 FILLER_16_77
*347 FILLER_16_83
*348 FILLER_16_85
*349 FILLER_16_97
*350 FILLER_17_105
*351 FILLER_17_111
*352 FILLER_17_113
*353 FILLER_17_125
*354 FILLER_17_137
*355 FILLER_17_149
*356 FILLER_17_15
*357 FILLER_17_161
*358 FILLER_17_167
*359 FILLER_17_169
*360 FILLER_17_181
*361 FILLER_17_193
*362 FILLER_17_205
*363 FILLER_17_217
*364 FILLER_17_223
*365 FILLER_17_225
*366 FILLER_17_237
*367 FILLER_17_249
*368 FILLER_17_261
*369 FILLER_17_273
*370 FILLER_17_279
*371 FILLER_17_281
*372 FILLER_17_293
*373 FILLER_17_3
*374 FILLER_17_36
*375 FILLER_17_48
*376 FILLER_17_57
*377 FILLER_17_69
*378 FILLER_17_9
*379 FILLER_17_93
*380 FILLER_18_10
*381 FILLER_18_109
*382 FILLER_18_121
*383 FILLER_18_133
*384 FILLER_18_139
*385 FILLER_18_141
*386 FILLER_18_153
*387 FILLER_18_165
*388 FILLER_18_177
*389 FILLER_18_18
*390 FILLER_18_189
*391 FILLER_18_195
*392 FILLER_18_197
*393 FILLER_18_209
*394 FILLER_18_221
*395 FILLER_18_233
*396 FILLER_18_245
*397 FILLER_18_251
*398 FILLER_18_253
*399 FILLER_18_26
*400 FILLER_18_265
*401 FILLER_18_277
*402 FILLER_18_289
*403 FILLER_18_29
*404 FILLER_18_297
*405 FILLER_18_3
*406 FILLER_18_41
*407 FILLER_18_49
*408 FILLER_18_57
*409 FILLER_18_69
*410 FILLER_18_81
*411 FILLER_18_85
*412 FILLER_18_97
*413 FILLER_19_105
*414 FILLER_19_111
*415 FILLER_19_113
*416 FILLER_19_125
*417 FILLER_19_137
*418 FILLER_19_149
*419 FILLER_19_161
*420 FILLER_19_167
*421 FILLER_19_169
*422 FILLER_19_181
*423 FILLER_19_193
*424 FILLER_19_205
*425 FILLER_19_217
*426 FILLER_19_223
*427 FILLER_19_225
*428 FILLER_19_237
*429 FILLER_19_249
*430 FILLER_19_261
*431 FILLER_19_27
*432 FILLER_19_273
*433 FILLER_19_279
*434 FILLER_19_281
*435 FILLER_19_293
*436 FILLER_19_3
*437 FILLER_19_39
*438 FILLER_19_51
*439 FILLER_19_55
*440 FILLER_19_57
*441 FILLER_19_69
*442 FILLER_19_81
*443 FILLER_19_93
*444 FILLER_1_105
*445 FILLER_1_111
*446 FILLER_1_113
*447 FILLER_1_125
*448 FILLER_1_137
*449 FILLER_1_149
*450 FILLER_1_15
*451 FILLER_1_161
*452 FILLER_1_167
*453 FILLER_1_169
*454 FILLER_1_181
*455 FILLER_1_193
*456 FILLER_1_205
*457 FILLER_1_217
*458 FILLER_1_223
*459 FILLER_1_225
*460 FILLER_1_237
*461 FILLER_1_249
*462 FILLER_1_261
*463 FILLER_1_27
*464 FILLER_1_273
*465 FILLER_1_279
*466 FILLER_1_281
*467 FILLER_1_293
*468 FILLER_1_3
*469 FILLER_1_39
*470 FILLER_1_51
*471 FILLER_1_55
*472 FILLER_1_57
*473 FILLER_1_69
*474 FILLER_1_81
*475 FILLER_1_93
*476 FILLER_20_109
*477 FILLER_20_121
*478 FILLER_20_133
*479 FILLER_20_139
*480 FILLER_20_141
*481 FILLER_20_153
*482 FILLER_20_165
*483 FILLER_20_17
*484 FILLER_20_177
*485 FILLER_20_189
*486 FILLER_20_195
*487 FILLER_20_197
*488 FILLER_20_209
*489 FILLER_20_221
*490 FILLER_20_233
*491 FILLER_20_245
*492 FILLER_20_25
*493 FILLER_20_251
*494 FILLER_20_253
*495 FILLER_20_265
*496 FILLER_20_277
*497 FILLER_20_289
*498 FILLER_20_29
*499 FILLER_20_297
*500 FILLER_20_3
*501 FILLER_20_41
*502 FILLER_20_65
*503 FILLER_20_77
*504 FILLER_20_83
*505 FILLER_20_85
*506 FILLER_20_9
*507 FILLER_20_97
*508 FILLER_21_10
*509 FILLER_21_105
*510 FILLER_21_111
*511 FILLER_21_113
*512 FILLER_21_125
*513 FILLER_21_137
*514 FILLER_21_149
*515 FILLER_21_161
*516 FILLER_21_167
*517 FILLER_21_169
*518 FILLER_21_17
*519 FILLER_21_181
*520 FILLER_21_193
*521 FILLER_21_205
*522 FILLER_21_217
*523 FILLER_21_223
*524 FILLER_21_225
*525 FILLER_21_237
*526 FILLER_21_249
*527 FILLER_21_261
*528 FILLER_21_273
*529 FILLER_21_279
*530 FILLER_21_281
*531 FILLER_21_29
*532 FILLER_21_293
*533 FILLER_21_3
*534 FILLER_21_41
*535 FILLER_21_53
*536 FILLER_21_57
*537 FILLER_21_69
*538 FILLER_21_81
*539 FILLER_21_93
*540 FILLER_22_109
*541 FILLER_22_121
*542 FILLER_22_133
*543 FILLER_22_139
*544 FILLER_22_141
*545 FILLER_22_153
*546 FILLER_22_165
*547 FILLER_22_177
*548 FILLER_22_189
*549 FILLER_22_195
*550 FILLER_22_197
*551 FILLER_22_20
*552 FILLER_22_209
*553 FILLER_22_221
*554 FILLER_22_233
*555 FILLER_22_245
*556 FILLER_22_251
*557 FILLER_22_253
*558 FILLER_22_265
*559 FILLER_22_277
*560 FILLER_22_289
*561 FILLER_22_29
*562 FILLER_22_297
*563 FILLER_22_3
*564 FILLER_22_41
*565 FILLER_22_65
*566 FILLER_22_77
*567 FILLER_22_8
*568 FILLER_22_83
*569 FILLER_22_85
*570 FILLER_22_97
*571 FILLER_23_111
*572 FILLER_23_113
*573 FILLER_23_125
*574 FILLER_23_137
*575 FILLER_23_149
*576 FILLER_23_161
*577 FILLER_23_167
*578 FILLER_23_169
*579 FILLER_23_17
*580 FILLER_23_181
*581 FILLER_23_193
*582 FILLER_23_205
*583 FILLER_23_217
*584 FILLER_23_223
*585 FILLER_23_225
*586 FILLER_23_237
*587 FILLER_23_24
*588 FILLER_23_249
*589 FILLER_23_261
*590 FILLER_23_273
*591 FILLER_23_279
*592 FILLER_23_28
*593 FILLER_23_281
*594 FILLER_23_293
*595 FILLER_23_3
*596 FILLER_23_49
*597 FILLER_23_55
*598 FILLER_23_57
*599 FILLER_23_65
*600 FILLER_23_87
*601 FILLER_23_9
*602 FILLER_23_99
*603 FILLER_24_10
*604 FILLER_24_109
*605 FILLER_24_121
*606 FILLER_24_133
*607 FILLER_24_139
*608 FILLER_24_141
*609 FILLER_24_153
*610 FILLER_24_165
*611 FILLER_24_177
*612 FILLER_24_189
*613 FILLER_24_19
*614 FILLER_24_195
*615 FILLER_24_197
*616 FILLER_24_209
*617 FILLER_24_221
*618 FILLER_24_233
*619 FILLER_24_245
*620 FILLER_24_251
*621 FILLER_24_253
*622 FILLER_24_26
*623 FILLER_24_265
*624 FILLER_24_277
*625 FILLER_24_289
*626 FILLER_24_29
*627 FILLER_24_297
*628 FILLER_24_3
*629 FILLER_24_34
*630 FILLER_24_42
*631 FILLER_24_65
*632 FILLER_24_77
*633 FILLER_24_83
*634 FILLER_24_85
*635 FILLER_24_97
*636 FILLER_25_105
*637 FILLER_25_11
*638 FILLER_25_111
*639 FILLER_25_113
*640 FILLER_25_125
*641 FILLER_25_137
*642 FILLER_25_149
*643 FILLER_25_15
*644 FILLER_25_161
*645 FILLER_25_167
*646 FILLER_25_169
*647 FILLER_25_181
*648 FILLER_25_193
*649 FILLER_25_205
*650 FILLER_25_217
*651 FILLER_25_223
*652 FILLER_25_225
*653 FILLER_25_237
*654 FILLER_25_249
*655 FILLER_25_261
*656 FILLER_25_273
*657 FILLER_25_279
*658 FILLER_25_281
*659 FILLER_25_293
*660 FILLER_25_3
*661 FILLER_25_36
*662 FILLER_25_53
*663 FILLER_25_57
*664 FILLER_25_69
*665 FILLER_25_81
*666 FILLER_25_93
*667 FILLER_26_109
*668 FILLER_26_121
*669 FILLER_26_133
*670 FILLER_26_139
*671 FILLER_26_141
*672 FILLER_26_153
*673 FILLER_26_165
*674 FILLER_26_177
*675 FILLER_26_189
*676 FILLER_26_195
*677 FILLER_26_197
*678 FILLER_26_209
*679 FILLER_26_221
*680 FILLER_26_233
*681 FILLER_26_245
*682 FILLER_26_251
*683 FILLER_26_253
*684 FILLER_26_26
*685 FILLER_26_265
*686 FILLER_26_277
*687 FILLER_26_289
*688 FILLER_26_29
*689 FILLER_26_297
*690 FILLER_26_3
*691 FILLER_26_41
*692 FILLER_26_67
*693 FILLER_26_79
*694 FILLER_26_83
*695 FILLER_26_85
*696 FILLER_26_97
*697 FILLER_27_105
*698 FILLER_27_111
*699 FILLER_27_113
*700 FILLER_27_12
*701 FILLER_27_126
*702 FILLER_27_138
*703 FILLER_27_150
*704 FILLER_27_162
*705 FILLER_27_169
*706 FILLER_27_181
*707 FILLER_27_193
*708 FILLER_27_205
*709 FILLER_27_217
*710 FILLER_27_223
*711 FILLER_27_225
*712 FILLER_27_237
*713 FILLER_27_249
*714 FILLER_27_261
*715 FILLER_27_273
*716 FILLER_27_279
*717 FILLER_27_281
*718 FILLER_27_293
*719 FILLER_27_3
*720 FILLER_27_36
*721 FILLER_27_48
*722 FILLER_27_57
*723 FILLER_27_79
*724 FILLER_27_93
*725 FILLER_28_100
*726 FILLER_28_112
*727 FILLER_28_124
*728 FILLER_28_136
*729 FILLER_28_141
*730 FILLER_28_153
*731 FILLER_28_165
*732 FILLER_28_177
*733 FILLER_28_189
*734 FILLER_28_195
*735 FILLER_28_197
*736 FILLER_28_209
*737 FILLER_28_221
*738 FILLER_28_233
*739 FILLER_28_245
*740 FILLER_28_251
*741 FILLER_28_253
*742 FILLER_28_26
*743 FILLER_28_265
*744 FILLER_28_277
*745 FILLER_28_289
*746 FILLER_28_29
*747 FILLER_28_297
*748 FILLER_28_3
*749 FILLER_28_41
*750 FILLER_28_49
*751 FILLER_28_70
*752 FILLER_28_82
*753 FILLER_28_85
*754 FILLER_29_103
*755 FILLER_29_111
*756 FILLER_29_113
*757 FILLER_29_125
*758 FILLER_29_137
*759 FILLER_29_149
*760 FILLER_29_15
*761 FILLER_29_161
*762 FILLER_29_167
*763 FILLER_29_169
*764 FILLER_29_181
*765 FILLER_29_193
*766 FILLER_29_205
*767 FILLER_29_217
*768 FILLER_29_22
*769 FILLER_29_223
*770 FILLER_29_225
*771 FILLER_29_237
*772 FILLER_29_249
*773 FILLER_29_261
*774 FILLER_29_273
*775 FILLER_29_279
*776 FILLER_29_281
*777 FILLER_29_293
*778 FILLER_29_3
*779 FILLER_29_54
*780 FILLER_29_57
*781 FILLER_29_79
*782 FILLER_29_91
*783 FILLER_2_109
*784 FILLER_2_121
*785 FILLER_2_133
*786 FILLER_2_139
*787 FILLER_2_141
*788 FILLER_2_15
*789 FILLER_2_153
*790 FILLER_2_165
*791 FILLER_2_177
*792 FILLER_2_189
*793 FILLER_2_195
*794 FILLER_2_197
*795 FILLER_2_209
*796 FILLER_2_221
*797 FILLER_2_233
*798 FILLER_2_245
*799 FILLER_2_251
*800 FILLER_2_253
*801 FILLER_2_265
*802 FILLER_2_27
*803 FILLER_2_277
*804 FILLER_2_289
*805 FILLER_2_29
*806 FILLER_2_297
*807 FILLER_2_3
*808 FILLER_2_41
*809 FILLER_2_53
*810 FILLER_2_65
*811 FILLER_2_77
*812 FILLER_2_83
*813 FILLER_2_85
*814 FILLER_2_97
*815 FILLER_30_109
*816 FILLER_30_121
*817 FILLER_30_133
*818 FILLER_30_139
*819 FILLER_30_141
*820 FILLER_30_153
*821 FILLER_30_165
*822 FILLER_30_177
*823 FILLER_30_189
*824 FILLER_30_195
*825 FILLER_30_197
*826 FILLER_30_209
*827 FILLER_30_221
*828 FILLER_30_233
*829 FILLER_30_245
*830 FILLER_30_251
*831 FILLER_30_253
*832 FILLER_30_26
*833 FILLER_30_265
*834 FILLER_30_277
*835 FILLER_30_289
*836 FILLER_30_29
*837 FILLER_30_297
*838 FILLER_30_3
*839 FILLER_30_41
*840 FILLER_30_49
*841 FILLER_30_72
*842 FILLER_30_85
*843 FILLER_30_97
*844 FILLER_31_105
*845 FILLER_31_111
*846 FILLER_31_113
*847 FILLER_31_125
*848 FILLER_31_137
*849 FILLER_31_149
*850 FILLER_31_161
*851 FILLER_31_167
*852 FILLER_31_169
*853 FILLER_31_181
*854 FILLER_31_193
*855 FILLER_31_205
*856 FILLER_31_217
*857 FILLER_31_223
*858 FILLER_31_225
*859 FILLER_31_237
*860 FILLER_31_249
*861 FILLER_31_261
*862 FILLER_31_273
*863 FILLER_31_279
*864 FILLER_31_281
*865 FILLER_31_293
*866 FILLER_31_3
*867 FILLER_31_30
*868 FILLER_31_54
*869 FILLER_31_57
*870 FILLER_31_69
*871 FILLER_31_9
*872 FILLER_31_93
*873 FILLER_32_109
*874 FILLER_32_121
*875 FILLER_32_133
*876 FILLER_32_139
*877 FILLER_32_141
*878 FILLER_32_153
*879 FILLER_32_165
*880 FILLER_32_177
*881 FILLER_32_189
*882 FILLER_32_195
*883 FILLER_32_197
*884 FILLER_32_209
*885 FILLER_32_221
*886 FILLER_32_233
*887 FILLER_32_245
*888 FILLER_32_251
*889 FILLER_32_253
*890 FILLER_32_26
*891 FILLER_32_265
*892 FILLER_32_277
*893 FILLER_32_289
*894 FILLER_32_29
*895 FILLER_32_297
*896 FILLER_32_3
*897 FILLER_32_41
*898 FILLER_32_65
*899 FILLER_32_77
*900 FILLER_32_83
*901 FILLER_32_85
*902 FILLER_32_97
*903 FILLER_33_111
*904 FILLER_33_113
*905 FILLER_33_125
*906 FILLER_33_137
*907 FILLER_33_14
*908 FILLER_33_149
*909 FILLER_33_161
*910 FILLER_33_167
*911 FILLER_33_169
*912 FILLER_33_181
*913 FILLER_33_193
*914 FILLER_33_205
*915 FILLER_33_217
*916 FILLER_33_223
*917 FILLER_33_225
*918 FILLER_33_237
*919 FILLER_33_249
*920 FILLER_33_26
*921 FILLER_33_261
*922 FILLER_33_273
*923 FILLER_33_279
*924 FILLER_33_281
*925 FILLER_33_293
*926 FILLER_33_3
*927 FILLER_33_54
*928 FILLER_33_57
*929 FILLER_33_65
*930 FILLER_33_87
*931 FILLER_33_99
*932 FILLER_34_10
*933 FILLER_34_100
*934 FILLER_34_112
*935 FILLER_34_124
*936 FILLER_34_136
*937 FILLER_34_141
*938 FILLER_34_153
*939 FILLER_34_165
*940 FILLER_34_177
*941 FILLER_34_189
*942 FILLER_34_195
*943 FILLER_34_197
*944 FILLER_34_209
*945 FILLER_34_22
*946 FILLER_34_221
*947 FILLER_34_233
*948 FILLER_34_245
*949 FILLER_34_251
*950 FILLER_34_253
*951 FILLER_34_265
*952 FILLER_34_277
*953 FILLER_34_289
*954 FILLER_34_29
*955 FILLER_34_297
*956 FILLER_34_3
*957 FILLER_34_37
*958 FILLER_34_58
*959 FILLER_34_82
*960 FILLER_34_85
*961 FILLER_35_105
*962 FILLER_35_111
*963 FILLER_35_113
*964 FILLER_35_125
*965 FILLER_35_137
*966 FILLER_35_149
*967 FILLER_35_15
*968 FILLER_35_161
*969 FILLER_35_167
*970 FILLER_35_169
*971 FILLER_35_181
*972 FILLER_35_193
*973 FILLER_35_205
*974 FILLER_35_217
*975 FILLER_35_223
*976 FILLER_35_225
*977 FILLER_35_237
*978 FILLER_35_249
*979 FILLER_35_261
*980 FILLER_35_27
*981 FILLER_35_273
*982 FILLER_35_279
*983 FILLER_35_281
*984 FILLER_35_293
*985 FILLER_35_3
*986 FILLER_35_33
*987 FILLER_35_54
*988 FILLER_35_57
*989 FILLER_35_69
*990 FILLER_35_93
*991 FILLER_36_109
*992 FILLER_36_121
*993 FILLER_36_133
*994 FILLER_36_139
*995 FILLER_36_141
*996 FILLER_36_15
*997 FILLER_36_153
*998 FILLER_36_165
*999 FILLER_36_177
*1000 FILLER_36_189
*1001 FILLER_36_195
*1002 FILLER_36_197
*1003 FILLER_36_209
*1004 FILLER_36_221
*1005 FILLER_36_233
*1006 FILLER_36_245
*1007 FILLER_36_251
*1008 FILLER_36_253
*1009 FILLER_36_265
*1010 FILLER_36_27
*1011 FILLER_36_277
*1012 FILLER_36_289
*1013 FILLER_36_29
*1014 FILLER_36_297
*1015 FILLER_36_3
*1016 FILLER_36_41
*1017 FILLER_36_49
*1018 FILLER_36_71
*1019 FILLER_36_83
*1020 FILLER_36_85
*1021 FILLER_36_97
*1022 FILLER_37_103
*1023 FILLER_37_111
*1024 FILLER_37_113
*1025 FILLER_37_125
*1026 FILLER_37_137
*1027 FILLER_37_149
*1028 FILLER_37_15
*1029 FILLER_37_161
*1030 FILLER_37_167
*1031 FILLER_37_169
*1032 FILLER_37_181
*1033 FILLER_37_193
*1034 FILLER_37_205
*1035 FILLER_37_217
*1036 FILLER_37_223
*1037 FILLER_37_225
*1038 FILLER_37_237
*1039 FILLER_37_249
*1040 FILLER_37_261
*1041 FILLER_37_273
*1042 FILLER_37_279
*1043 FILLER_37_281
*1044 FILLER_37_293
*1045 FILLER_37_3
*1046 FILLER_37_39
*1047 FILLER_37_51
*1048 FILLER_37_55
*1049 FILLER_37_57
*1050 FILLER_37_79
*1051 FILLER_37_91
*1052 FILLER_38_109
*1053 FILLER_38_121
*1054 FILLER_38_133
*1055 FILLER_38_139
*1056 FILLER_38_141
*1057 FILLER_38_15
*1058 FILLER_38_153
*1059 FILLER_38_165
*1060 FILLER_38_177
*1061 FILLER_38_189
*1062 FILLER_38_195
*1063 FILLER_38_197
*1064 FILLER_38_209
*1065 FILLER_38_221
*1066 FILLER_38_233
*1067 FILLER_38_245
*1068 FILLER_38_251
*1069 FILLER_38_253
*1070 FILLER_38_265
*1071 FILLER_38_27
*1072 FILLER_38_277
*1073 FILLER_38_289
*1074 FILLER_38_29
*1075 FILLER_38_297
*1076 FILLER_38_3
*1077 FILLER_38_41
*1078 FILLER_38_65
*1079 FILLER_38_77
*1080 FILLER_38_83
*1081 FILLER_38_85
*1082 FILLER_38_97
*1083 FILLER_39_10
*1084 FILLER_39_105
*1085 FILLER_39_111
*1086 FILLER_39_113
*1087 FILLER_39_125
*1088 FILLER_39_137
*1089 FILLER_39_149
*1090 FILLER_39_161
*1091 FILLER_39_167
*1092 FILLER_39_169
*1093 FILLER_39_181
*1094 FILLER_39_193
*1095 FILLER_39_205
*1096 FILLER_39_217
*1097 FILLER_39_22
*1098 FILLER_39_223
*1099 FILLER_39_225
*1100 FILLER_39_237
*1101 FILLER_39_249
*1102 FILLER_39_261
*1103 FILLER_39_273
*1104 FILLER_39_279
*1105 FILLER_39_281
*1106 FILLER_39_293
*1107 FILLER_39_3
*1108 FILLER_39_34
*1109 FILLER_39_46
*1110 FILLER_39_54
*1111 FILLER_39_57
*1112 FILLER_39_69
*1113 FILLER_39_81
*1114 FILLER_39_93
*1115 FILLER_3_105
*1116 FILLER_3_111
*1117 FILLER_3_113
*1118 FILLER_3_125
*1119 FILLER_3_137
*1120 FILLER_3_149
*1121 FILLER_3_15
*1122 FILLER_3_161
*1123 FILLER_3_167
*1124 FILLER_3_169
*1125 FILLER_3_181
*1126 FILLER_3_193
*1127 FILLER_3_205
*1128 FILLER_3_217
*1129 FILLER_3_223
*1130 FILLER_3_225
*1131 FILLER_3_237
*1132 FILLER_3_249
*1133 FILLER_3_261
*1134 FILLER_3_27
*1135 FILLER_3_273
*1136 FILLER_3_279
*1137 FILLER_3_281
*1138 FILLER_3_293
*1139 FILLER_3_3
*1140 FILLER_3_39
*1141 FILLER_3_51
*1142 FILLER_3_55
*1143 FILLER_3_57
*1144 FILLER_3_69
*1145 FILLER_3_81
*1146 FILLER_3_93
*1147 FILLER_40_109
*1148 FILLER_40_121
*1149 FILLER_40_133
*1150 FILLER_40_139
*1151 FILLER_40_141
*1152 FILLER_40_153
*1153 FILLER_40_165
*1154 FILLER_40_177
*1155 FILLER_40_189
*1156 FILLER_40_195
*1157 FILLER_40_197
*1158 FILLER_40_209
*1159 FILLER_40_221
*1160 FILLER_40_233
*1161 FILLER_40_245
*1162 FILLER_40_25
*1163 FILLER_40_251
*1164 FILLER_40_253
*1165 FILLER_40_265
*1166 FILLER_40_277
*1167 FILLER_40_289
*1168 FILLER_40_29
*1169 FILLER_40_297
*1170 FILLER_40_3
*1171 FILLER_40_37
*1172 FILLER_40_59
*1173 FILLER_40_71
*1174 FILLER_40_83
*1175 FILLER_40_85
*1176 FILLER_40_97
*1177 FILLER_41_105
*1178 FILLER_41_111
*1179 FILLER_41_113
*1180 FILLER_41_125
*1181 FILLER_41_137
*1182 FILLER_41_149
*1183 FILLER_41_15
*1184 FILLER_41_161
*1185 FILLER_41_167
*1186 FILLER_41_169
*1187 FILLER_41_181
*1188 FILLER_41_193
*1189 FILLER_41_205
*1190 FILLER_41_217
*1191 FILLER_41_223
*1192 FILLER_41_225
*1193 FILLER_41_237
*1194 FILLER_41_249
*1195 FILLER_41_261
*1196 FILLER_41_273
*1197 FILLER_41_279
*1198 FILLER_41_281
*1199 FILLER_41_293
*1200 FILLER_41_3
*1201 FILLER_41_36
*1202 FILLER_41_48
*1203 FILLER_41_57
*1204 FILLER_41_69
*1205 FILLER_41_81
*1206 FILLER_41_93
*1207 FILLER_42_109
*1208 FILLER_42_121
*1209 FILLER_42_133
*1210 FILLER_42_139
*1211 FILLER_42_141
*1212 FILLER_42_15
*1213 FILLER_42_153
*1214 FILLER_42_165
*1215 FILLER_42_177
*1216 FILLER_42_189
*1217 FILLER_42_195
*1218 FILLER_42_197
*1219 FILLER_42_209
*1220 FILLER_42_221
*1221 FILLER_42_233
*1222 FILLER_42_245
*1223 FILLER_42_251
*1224 FILLER_42_253
*1225 FILLER_42_265
*1226 FILLER_42_27
*1227 FILLER_42_277
*1228 FILLER_42_289
*1229 FILLER_42_29
*1230 FILLER_42_297
*1231 FILLER_42_3
*1232 FILLER_42_41
*1233 FILLER_42_53
*1234 FILLER_42_65
*1235 FILLER_42_77
*1236 FILLER_42_83
*1237 FILLER_42_85
*1238 FILLER_42_97
*1239 FILLER_43_105
*1240 FILLER_43_111
*1241 FILLER_43_113
*1242 FILLER_43_12
*1243 FILLER_43_125
*1244 FILLER_43_137
*1245 FILLER_43_149
*1246 FILLER_43_161
*1247 FILLER_43_167
*1248 FILLER_43_169
*1249 FILLER_43_181
*1250 FILLER_43_193
*1251 FILLER_43_205
*1252 FILLER_43_217
*1253 FILLER_43_223
*1254 FILLER_43_225
*1255 FILLER_43_237
*1256 FILLER_43_24
*1257 FILLER_43_249
*1258 FILLER_43_261
*1259 FILLER_43_273
*1260 FILLER_43_279
*1261 FILLER_43_281
*1262 FILLER_43_293
*1263 FILLER_43_3
*1264 FILLER_43_36
*1265 FILLER_43_48
*1266 FILLER_43_57
*1267 FILLER_43_69
*1268 FILLER_43_81
*1269 FILLER_43_93
*1270 FILLER_44_100
*1271 FILLER_44_112
*1272 FILLER_44_124
*1273 FILLER_44_13
*1274 FILLER_44_136
*1275 FILLER_44_141
*1276 FILLER_44_153
*1277 FILLER_44_165
*1278 FILLER_44_177
*1279 FILLER_44_189
*1280 FILLER_44_195
*1281 FILLER_44_197
*1282 FILLER_44_209
*1283 FILLER_44_221
*1284 FILLER_44_233
*1285 FILLER_44_245
*1286 FILLER_44_25
*1287 FILLER_44_251
*1288 FILLER_44_253
*1289 FILLER_44_265
*1290 FILLER_44_277
*1291 FILLER_44_289
*1292 FILLER_44_29
*1293 FILLER_44_297
*1294 FILLER_44_3
*1295 FILLER_44_41
*1296 FILLER_44_53
*1297 FILLER_44_65
*1298 FILLER_44_77
*1299 FILLER_44_83
*1300 FILLER_44_85
*1301 FILLER_44_89
*1302 FILLER_44_9
*1303 FILLER_45_105
*1304 FILLER_45_111
*1305 FILLER_45_113
*1306 FILLER_45_125
*1307 FILLER_45_137
*1308 FILLER_45_149
*1309 FILLER_45_161
*1310 FILLER_45_167
*1311 FILLER_45_169
*1312 FILLER_45_181
*1313 FILLER_45_193
*1314 FILLER_45_205
*1315 FILLER_45_21
*1316 FILLER_45_220
*1317 FILLER_45_225
*1318 FILLER_45_237
*1319 FILLER_45_249
*1320 FILLER_45_261
*1321 FILLER_45_273
*1322 FILLER_45_279
*1323 FILLER_45_281
*1324 FILLER_45_293
*1325 FILLER_45_3
*1326 FILLER_45_33
*1327 FILLER_45_45
*1328 FILLER_45_53
*1329 FILLER_45_57
*1330 FILLER_45_69
*1331 FILLER_45_81
*1332 FILLER_45_9
*1333 FILLER_45_93
*1334 FILLER_46_109
*1335 FILLER_46_121
*1336 FILLER_46_133
*1337 FILLER_46_139
*1338 FILLER_46_141
*1339 FILLER_46_15
*1340 FILLER_46_153
*1341 FILLER_46_165
*1342 FILLER_46_177
*1343 FILLER_46_189
*1344 FILLER_46_195
*1345 FILLER_46_197
*1346 FILLER_46_209
*1347 FILLER_46_221
*1348 FILLER_46_233
*1349 FILLER_46_245
*1350 FILLER_46_251
*1351 FILLER_46_253
*1352 FILLER_46_265
*1353 FILLER_46_27
*1354 FILLER_46_277
*1355 FILLER_46_289
*1356 FILLER_46_29
*1357 FILLER_46_297
*1358 FILLER_46_3
*1359 FILLER_46_41
*1360 FILLER_46_53
*1361 FILLER_46_65
*1362 FILLER_46_77
*1363 FILLER_46_83
*1364 FILLER_46_85
*1365 FILLER_46_97
*1366 FILLER_47_105
*1367 FILLER_47_111
*1368 FILLER_47_113
*1369 FILLER_47_125
*1370 FILLER_47_137
*1371 FILLER_47_149
*1372 FILLER_47_15
*1373 FILLER_47_161
*1374 FILLER_47_167
*1375 FILLER_47_169
*1376 FILLER_47_181
*1377 FILLER_47_193
*1378 FILLER_47_205
*1379 FILLER_47_217
*1380 FILLER_47_223
*1381 FILLER_47_225
*1382 FILLER_47_237
*1383 FILLER_47_249
*1384 FILLER_47_261
*1385 FILLER_47_27
*1386 FILLER_47_273
*1387 FILLER_47_279
*1388 FILLER_47_281
*1389 FILLER_47_293
*1390 FILLER_47_3
*1391 FILLER_47_39
*1392 FILLER_47_51
*1393 FILLER_47_55
*1394 FILLER_47_57
*1395 FILLER_47_69
*1396 FILLER_47_81
*1397 FILLER_47_93
*1398 FILLER_48_109
*1399 FILLER_48_121
*1400 FILLER_48_133
*1401 FILLER_48_139
*1402 FILLER_48_141
*1403 FILLER_48_15
*1404 FILLER_48_153
*1405 FILLER_48_165
*1406 FILLER_48_177
*1407 FILLER_48_189
*1408 FILLER_48_195
*1409 FILLER_48_197
*1410 FILLER_48_209
*1411 FILLER_48_221
*1412 FILLER_48_233
*1413 FILLER_48_245
*1414 FILLER_48_251
*1415 FILLER_48_253
*1416 FILLER_48_265
*1417 FILLER_48_27
*1418 FILLER_48_277
*1419 FILLER_48_289
*1420 FILLER_48_29
*1421 FILLER_48_297
*1422 FILLER_48_3
*1423 FILLER_48_41
*1424 FILLER_48_53
*1425 FILLER_48_65
*1426 FILLER_48_77
*1427 FILLER_48_83
*1428 FILLER_48_85
*1429 FILLER_48_97
*1430 FILLER_49_105
*1431 FILLER_49_111
*1432 FILLER_49_113
*1433 FILLER_49_12
*1434 FILLER_49_125
*1435 FILLER_49_137
*1436 FILLER_49_149
*1437 FILLER_49_161
*1438 FILLER_49_167
*1439 FILLER_49_169
*1440 FILLER_49_181
*1441 FILLER_49_193
*1442 FILLER_49_205
*1443 FILLER_49_217
*1444 FILLER_49_223
*1445 FILLER_49_225
*1446 FILLER_49_237
*1447 FILLER_49_24
*1448 FILLER_49_249
*1449 FILLER_49_261
*1450 FILLER_49_273
*1451 FILLER_49_279
*1452 FILLER_49_281
*1453 FILLER_49_293
*1454 FILLER_49_3
*1455 FILLER_49_36
*1456 FILLER_49_48
*1457 FILLER_49_57
*1458 FILLER_49_69
*1459 FILLER_49_81
*1460 FILLER_49_93
*1461 FILLER_4_109
*1462 FILLER_4_121
*1463 FILLER_4_133
*1464 FILLER_4_139
*1465 FILLER_4_141
*1466 FILLER_4_15
*1467 FILLER_4_153
*1468 FILLER_4_165
*1469 FILLER_4_177
*1470 FILLER_4_189
*1471 FILLER_4_195
*1472 FILLER_4_197
*1473 FILLER_4_209
*1474 FILLER_4_221
*1475 FILLER_4_233
*1476 FILLER_4_245
*1477 FILLER_4_251
*1478 FILLER_4_253
*1479 FILLER_4_265
*1480 FILLER_4_27
*1481 FILLER_4_277
*1482 FILLER_4_289
*1483 FILLER_4_29
*1484 FILLER_4_297
*1485 FILLER_4_3
*1486 FILLER_4_41
*1487 FILLER_4_53
*1488 FILLER_4_65
*1489 FILLER_4_77
*1490 FILLER_4_83
*1491 FILLER_4_85
*1492 FILLER_4_97
*1493 FILLER_50_109
*1494 FILLER_50_121
*1495 FILLER_50_133
*1496 FILLER_50_139
*1497 FILLER_50_141
*1498 FILLER_50_15
*1499 FILLER_50_153
*1500 FILLER_50_160
*1501 FILLER_50_172
*1502 FILLER_50_184
*1503 FILLER_50_197
*1504 FILLER_50_209
*1505 FILLER_50_221
*1506 FILLER_50_233
*1507 FILLER_50_245
*1508 FILLER_50_251
*1509 FILLER_50_253
*1510 FILLER_50_265
*1511 FILLER_50_27
*1512 FILLER_50_277
*1513 FILLER_50_289
*1514 FILLER_50_29
*1515 FILLER_50_297
*1516 FILLER_50_3
*1517 FILLER_50_41
*1518 FILLER_50_53
*1519 FILLER_50_65
*1520 FILLER_50_77
*1521 FILLER_50_83
*1522 FILLER_50_85
*1523 FILLER_50_97
*1524 FILLER_51_105
*1525 FILLER_51_11
*1526 FILLER_51_111
*1527 FILLER_51_113
*1528 FILLER_51_125
*1529 FILLER_51_137
*1530 FILLER_51_149
*1531 FILLER_51_161
*1532 FILLER_51_167
*1533 FILLER_51_169
*1534 FILLER_51_181
*1535 FILLER_51_193
*1536 FILLER_51_205
*1537 FILLER_51_217
*1538 FILLER_51_223
*1539 FILLER_51_225
*1540 FILLER_51_23
*1541 FILLER_51_237
*1542 FILLER_51_249
*1543 FILLER_51_261
*1544 FILLER_51_273
*1545 FILLER_51_279
*1546 FILLER_51_281
*1547 FILLER_51_293
*1548 FILLER_51_3
*1549 FILLER_51_35
*1550 FILLER_51_47
*1551 FILLER_51_55
*1552 FILLER_51_57
*1553 FILLER_51_69
*1554 FILLER_51_81
*1555 FILLER_51_93
*1556 FILLER_52_109
*1557 FILLER_52_121
*1558 FILLER_52_133
*1559 FILLER_52_139
*1560 FILLER_52_141
*1561 FILLER_52_153
*1562 FILLER_52_165
*1563 FILLER_52_177
*1564 FILLER_52_189
*1565 FILLER_52_195
*1566 FILLER_52_197
*1567 FILLER_52_209
*1568 FILLER_52_21
*1569 FILLER_52_221
*1570 FILLER_52_233
*1571 FILLER_52_245
*1572 FILLER_52_251
*1573 FILLER_52_253
*1574 FILLER_52_265
*1575 FILLER_52_27
*1576 FILLER_52_277
*1577 FILLER_52_289
*1578 FILLER_52_29
*1579 FILLER_52_297
*1580 FILLER_52_3
*1581 FILLER_52_41
*1582 FILLER_52_53
*1583 FILLER_52_65