*SPEF "ieee 1481-1999"
*DESIGN "user_module_362208154278843393"
*DATE "11:11:11 Fri 11 11, 1111"
*VENDOR "OpenRCX"
*PROGRAM "Parallel Extraction"
*VERSION "1.0"
*DESIGN_FLOW "NAME_SCOPE LOCAL" "PIN_CAP NONE"
*DIVIDER /
*DELIMITER :
*BUS_DELIMITER []
*T_UNIT 1 NS
*C_UNIT 1 PF
*R_UNIT 1 OHM
*L_UNIT 1 HENRY

*NAME_MAP
*1 io_in[0]
*2 io_in[1]
*3 io_in[2]
*4 io_in[3]
*5 io_in[4]
*6 io_in[5]
*7 io_in[6]
*8 io_in[7]
*9 io_out[0]
*10 net5
*11 net6
*12 net7
*13 net8
*14 net9
*15 net10
*16 io_out[7]
*19 _00_
*20 _01_
*21 _02_
*22 _03_
*23 _04_
*24 _05_
*25 _06_
*26 _07_
*27 and10\.a
*28 and14\.a
*29 and18\.a
*30 and22\.a
*31 and26\.a
*32 and30\.a
*33 and34\.a
*34 and38\.a
*35 and42\.a
*36 and46\.a
*37 and50\.a
*38 and54\.a
*39 and58\.a
*40 and6\.a
*41 and62\.a
*42 clknet_0_io_in[0]
*43 clknet_1_0__leaf_io_in[0]
*44 clknet_1_1__leaf_io_in[0]
*45 flop1\.d
*46 flop10\.d
*47 flop11\.d
*48 flop12\.d
*49 flop13\.d
*50 flop14\.d
*51 flop15\.d
*52 flop2\.d
*53 flop3\.d
*54 flop4\.d
*55 flop5\.d
*56 flop6\.d
*57 flop7\.d
*58 flop8\.d
*59 flop9\.d
*60 net1
*61 net2
*62 net3
*63 net4
*64 or1\.out
*65 FILLER_0_109
*66 FILLER_0_113
*67 FILLER_0_125
*68 FILLER_0_137
*69 FILLER_0_141
*70 FILLER_0_15
*71 FILLER_0_153
*72 FILLER_0_165
*73 FILLER_0_169
*74 FILLER_0_181
*75 FILLER_0_193
*76 FILLER_0_197
*77 FILLER_0_209
*78 FILLER_0_221
*79 FILLER_0_225
*80 FILLER_0_237
*81 FILLER_0_249
*82 FILLER_0_253
*83 FILLER_0_265
*84 FILLER_0_27
*85 FILLER_0_277
*86 FILLER_0_281
*87 FILLER_0_29
*88 FILLER_0_293
*89 FILLER_0_3
*90 FILLER_0_41
*91 FILLER_0_53
*92 FILLER_0_57
*93 FILLER_0_69
*94 FILLER_0_81
*95 FILLER_0_85
*96 FILLER_0_97
*97 FILLER_10_109
*98 FILLER_10_11
*99 FILLER_10_121
*100 FILLER_10_133
*101 FILLER_10_139
*102 FILLER_10_141
*103 FILLER_10_153
*104 FILLER_10_165
*105 FILLER_10_177
*106 FILLER_10_18
*107 FILLER_10_189
*108 FILLER_10_195
*109 FILLER_10_197
*110 FILLER_10_209
*111 FILLER_10_221
*112 FILLER_10_233
*113 FILLER_10_245
*114 FILLER_10_25
*115 FILLER_10_251
*116 FILLER_10_253
*117 FILLER_10_265
*118 FILLER_10_277
*119 FILLER_10_289
*120 FILLER_10_29
*121 FILLER_10_297
*122 FILLER_10_3
*123 FILLER_10_34
*124 FILLER_10_46
*125 FILLER_10_63
*126 FILLER_10_7
*127 FILLER_10_75
*128 FILLER_10_83
*129 FILLER_10_85
*130 FILLER_10_97
*131 FILLER_11_105
*132 FILLER_11_111
*133 FILLER_11_113
*134 FILLER_11_125
*135 FILLER_11_137
*136 FILLER_11_149
*137 FILLER_11_161
*138 FILLER_11_167
*139 FILLER_11_169
*140 FILLER_11_17
*141 FILLER_11_181
*142 FILLER_11_193
*143 FILLER_11_205
*144 FILLER_11_217
*145 FILLER_11_223
*146 FILLER_11_225
*147 FILLER_11_237
*148 FILLER_11_249
*149 FILLER_11_261
*150 FILLER_11_273
*151 FILLER_11_279
*152 FILLER_11_281
*153 FILLER_11_293
*154 FILLER_11_3
*155 FILLER_11_34
*156 FILLER_11_46
*157 FILLER_11_54
*158 FILLER_11_57
*159 FILLER_11_69
*160 FILLER_11_81
*161 FILLER_11_9
*162 FILLER_11_93
*163 FILLER_12_109
*164 FILLER_12_121
*165 FILLER_12_133
*166 FILLER_12_139
*167 FILLER_12_141
*168 FILLER_12_153
*169 FILLER_12_165
*170 FILLER_12_177
*171 FILLER_12_189
*172 FILLER_12_195
*173 FILLER_12_197
*174 FILLER_12_209
*175 FILLER_12_221
*176 FILLER_12_233
*177 FILLER_12_245
*178 FILLER_12_251
*179 FILLER_12_253
*180 FILLER_12_26
*181 FILLER_12_265
*182 FILLER_12_277
*183 FILLER_12_289
*184 FILLER_12_29
*185 FILLER_12_297
*186 FILLER_12_3
*187 FILLER_12_34
*188 FILLER_12_46
*189 FILLER_12_58
*190 FILLER_12_70
*191 FILLER_12_82
*192 FILLER_12_85
*193 FILLER_12_97
*194 FILLER_13_105
*195 FILLER_13_111
*196 FILLER_13_113
*197 FILLER_13_12
*198 FILLER_13_125
*199 FILLER_13_137
*200 FILLER_13_149
*201 FILLER_13_161
*202 FILLER_13_167
*203 FILLER_13_169
*204 FILLER_13_181
*205 FILLER_13_19
*206 FILLER_13_193
*207 FILLER_13_205
*208 FILLER_13_217
*209 FILLER_13_223
*210 FILLER_13_225
*211 FILLER_13_237
*212 FILLER_13_249
*213 FILLER_13_261
*214 FILLER_13_273
*215 FILLER_13_279
*216 FILLER_13_281
*217 FILLER_13_293
*218 FILLER_13_3
*219 FILLER_13_31
*220 FILLER_13_43
*221 FILLER_13_55
*222 FILLER_13_57
*223 FILLER_13_69
*224 FILLER_13_81
*225 FILLER_13_93
*226 FILLER_14_109
*227 FILLER_14_121
*228 FILLER_14_133
*229 FILLER_14_139
*230 FILLER_14_141
*231 FILLER_14_15
*232 FILLER_14_153
*233 FILLER_14_165
*234 FILLER_14_177
*235 FILLER_14_189
*236 FILLER_14_195
*237 FILLER_14_197
*238 FILLER_14_209
*239 FILLER_14_221
*240 FILLER_14_233
*241 FILLER_14_245
*242 FILLER_14_251
*243 FILLER_14_253
*244 FILLER_14_265
*245 FILLER_14_27
*246 FILLER_14_277
*247 FILLER_14_289
*248 FILLER_14_29
*249 FILLER_14_297
*250 FILLER_14_3
*251 FILLER_14_37
*252 FILLER_14_56
*253 FILLER_14_76
*254 FILLER_14_8
*255 FILLER_14_85
*256 FILLER_14_97
*257 FILLER_15_105
*258 FILLER_15_111
*259 FILLER_15_113
*260 FILLER_15_125
*261 FILLER_15_137
*262 FILLER_15_149
*263 FILLER_15_161
*264 FILLER_15_167
*265 FILLER_15_169
*266 FILLER_15_17
*267 FILLER_15_181
*268 FILLER_15_193
*269 FILLER_15_205
*270 FILLER_15_217
*271 FILLER_15_223
*272 FILLER_15_225
*273 FILLER_15_237
*274 FILLER_15_249
*275 FILLER_15_261
*276 FILLER_15_273
*277 FILLER_15_279
*278 FILLER_15_281
*279 FILLER_15_29
*280 FILLER_15_293
*281 FILLER_15_3
*282 FILLER_15_41
*283 FILLER_15_53
*284 FILLER_15_57
*285 FILLER_15_69
*286 FILLER_15_8
*287 FILLER_15_81
*288 FILLER_15_93
*289 FILLER_16_109
*290 FILLER_16_121
*291 FILLER_16_133
*292 FILLER_16_139
*293 FILLER_16_141
*294 FILLER_16_15
*295 FILLER_16_153
*296 FILLER_16_165
*297 FILLER_16_177
*298 FILLER_16_189
*299 FILLER_16_195
*300 FILLER_16_197
*301 FILLER_16_209
*302 FILLER_16_221
*303 FILLER_16_233
*304 FILLER_16_245
*305 FILLER_16_251
*306 FILLER_16_253
*307 FILLER_16_265
*308 FILLER_16_27
*309 FILLER_16_277
*310 FILLER_16_289
*311 FILLER_16_29
*312 FILLER_16_297
*313 FILLER_16_3
*314 FILLER_16_41
*315 FILLER_16_53
*316 FILLER_16_65
*317 FILLER_16_77
*318 FILLER_16_83
*319 FILLER_16_85
*320 FILLER_16_97
*321 FILLER_17_105
*322 FILLER_17_111
*323 FILLER_17_113
*324 FILLER_17_125
*325 FILLER_17_137
*326 FILLER_17_149
*327 FILLER_17_15
*328 FILLER_17_161
*329 FILLER_17_167
*330 FILLER_17_169
*331 FILLER_17_181
*332 FILLER_17_193
*333 FILLER_17_205
*334 FILLER_17_217
*335 FILLER_17_223
*336 FILLER_17_225
*337 FILLER_17_23
*338 FILLER_17_237
*339 FILLER_17_249
*340 FILLER_17_261
*341 FILLER_17_273
*342 FILLER_17_279
*343 FILLER_17_281
*344 FILLER_17_293
*345 FILLER_17_3
*346 FILLER_17_40
*347 FILLER_17_52
*348 FILLER_17_57
*349 FILLER_17_69
*350 FILLER_17_81
*351 FILLER_17_93
*352 FILLER_18_109
*353 FILLER_18_121
*354 FILLER_18_133
*355 FILLER_18_139
*356 FILLER_18_141
*357 FILLER_18_153
*358 FILLER_18_165
*359 FILLER_18_177
*360 FILLER_18_189
*361 FILLER_18_195
*362 FILLER_18_197
*363 FILLER_18_209
*364 FILLER_18_221
*365 FILLER_18_233
*366 FILLER_18_245
*367 FILLER_18_251
*368 FILLER_18_253
*369 FILLER_18_26
*370 FILLER_18_265
*371 FILLER_18_277
*372 FILLER_18_289
*373 FILLER_18_29
*374 FILLER_18_297
*375 FILLER_18_3
*376 FILLER_18_37
*377 FILLER_18_55
*378 FILLER_18_67
*379 FILLER_18_79
*380 FILLER_18_83
*381 FILLER_18_85
*382 FILLER_18_9
*383 FILLER_18_97
*384 FILLER_19_105
*385 FILLER_19_111
*386 FILLER_19_113
*387 FILLER_19_125
*388 FILLER_19_137
*389 FILLER_19_149
*390 FILLER_19_161
*391 FILLER_19_167
*392 FILLER_19_169
*393 FILLER_19_181
*394 FILLER_19_193
*395 FILLER_19_205
*396 FILLER_19_217
*397 FILLER_19_223
*398 FILLER_19_225
*399 FILLER_19_237
*400 FILLER_19_249
*401 FILLER_19_261
*402 FILLER_19_27
*403 FILLER_19_273
*404 FILLER_19_279
*405 FILLER_19_281
*406 FILLER_19_293
*407 FILLER_19_3
*408 FILLER_19_39
*409 FILLER_19_51
*410 FILLER_19_55
*411 FILLER_19_57
*412 FILLER_19_69
*413 FILLER_19_81
*414 FILLER_19_93
*415 FILLER_1_105
*416 FILLER_1_111
*417 FILLER_1_113
*418 FILLER_1_125
*419 FILLER_1_137
*420 FILLER_1_149
*421 FILLER_1_15
*422 FILLER_1_161
*423 FILLER_1_167
*424 FILLER_1_169
*425 FILLER_1_181
*426 FILLER_1_193
*427 FILLER_1_205
*428 FILLER_1_217
*429 FILLER_1_223
*430 FILLER_1_225
*431 FILLER_1_237
*432 FILLER_1_249
*433 FILLER_1_261
*434 FILLER_1_27
*435 FILLER_1_273
*436 FILLER_1_279
*437 FILLER_1_281
*438 FILLER_1_293
*439 FILLER_1_3
*440 FILLER_1_39
*441 FILLER_1_51
*442 FILLER_1_55
*443 FILLER_1_57
*444 FILLER_1_69
*445 FILLER_1_81
*446 FILLER_1_93
*447 FILLER_20_109
*448 FILLER_20_121
*449 FILLER_20_133
*450 FILLER_20_139
*451 FILLER_20_141
*452 FILLER_20_15
*453 FILLER_20_153
*454 FILLER_20_165
*455 FILLER_20_177
*456 FILLER_20_189
*457 FILLER_20_195
*458 FILLER_20_197
*459 FILLER_20_209
*460 FILLER_20_221
*461 FILLER_20_233
*462 FILLER_20_245
*463 FILLER_20_251
*464 FILLER_20_253
*465 FILLER_20_265
*466 FILLER_20_27
*467 FILLER_20_277
*468 FILLER_20_289
*469 FILLER_20_29
*470 FILLER_20_297
*471 FILLER_20_3
*472 FILLER_20_41
*473 FILLER_20_53
*474 FILLER_20_65
*475 FILLER_20_77
*476 FILLER_20_83
*477 FILLER_20_85
*478 FILLER_20_97
*479 FILLER_21_105
*480 FILLER_21_111
*481 FILLER_21_113
*482 FILLER_21_125
*483 FILLER_21_137
*484 FILLER_21_149
*485 FILLER_21_161
*486 FILLER_21_167
*487 FILLER_21_169
*488 FILLER_21_181
*489 FILLER_21_193
*490 FILLER_21_205
*491 FILLER_21_217
*492 FILLER_21_223
*493 FILLER_21_225
*494 FILLER_21_237
*495 FILLER_21_249
*496 FILLER_21_26
*497 FILLER_21_261
*498 FILLER_21_273
*499 FILLER_21_279
*500 FILLER_21_281
*501 FILLER_21_293
*502 FILLER_21_3
*503 FILLER_21_38
*504 FILLER_21_50
*505 FILLER_21_57
*506 FILLER_21_69
*507 FILLER_21_7
*508 FILLER_21_81
*509 FILLER_21_93
*510 FILLER_22_109
*511 FILLER_22_121
*512 FILLER_22_133
*513 FILLER_22_139
*514 FILLER_22_141
*515 FILLER_22_153
*516 FILLER_22_165
*517 FILLER_22_177
*518 FILLER_22_189
*519 FILLER_22_195
*520 FILLER_22_197
*521 FILLER_22_209
*522 FILLER_22_221
*523 FILLER_22_233
*524 FILLER_22_245
*525 FILLER_22_25
*526 FILLER_22_251
*527 FILLER_22_253
*528 FILLER_22_265
*529 FILLER_22_277
*530 FILLER_22_289
*531 FILLER_22_29
*532 FILLER_22_297
*533 FILLER_22_3
*534 FILLER_22_41
*535 FILLER_22_53
*536 FILLER_22_65
*537 FILLER_22_77
*538 FILLER_22_83
*539 FILLER_22_85
*540 FILLER_22_97
*541 FILLER_23_105
*542 FILLER_23_111
*543 FILLER_23_113
*544 FILLER_23_125
*545 FILLER_23_137
*546 FILLER_23_149
*547 FILLER_23_161
*548 FILLER_23_167
*549 FILLER_23_169
*550 FILLER_23_181
*551 FILLER_23_193
*552 FILLER_23_20
*553 FILLER_23_205
*554 FILLER_23_217
*555 FILLER_23_223
*556 FILLER_23_225
*557 FILLER_23_237
*558 FILLER_23_249
*559 FILLER_23_261
*560 FILLER_23_273
*561 FILLER_23_279
*562 FILLER_23_281
*563 FILLER_23_293
*564 FILLER_23_3
*565 FILLER_23_32
*566 FILLER_23_44
*567 FILLER_23_57
*568 FILLER_23_69
*569 FILLER_23_81
*570 FILLER_23_9
*571 FILLER_23_93
*572 FILLER_24_109
*573 FILLER_24_121
*574 FILLER_24_133
*575 FILLER_24_139
*576 FILLER_24_141
*577 FILLER_24_15
*578 FILLER_24_153
*579 FILLER_24_165
*580 FILLER_24_177
*581 FILLER_24_189
*582 FILLER_24_195
*583 FILLER_24_197
*584 FILLER_24_209
*585 FILLER_24_221
*586 FILLER_24_233
*587 FILLER_24_245
*588 FILLER_24_251
*589 FILLER_24_253
*590 FILLER_24_265
*591 FILLER_24_27
*592 FILLER_24_277
*593 FILLER_24_289
*594 FILLER_24_29
*595 FILLER_24_297
*596 FILLER_24_3
*597 FILLER_24_41
*598 FILLER_24_53
*599 FILLER_24_65
*600 FILLER_24_77
*601 FILLER_24_83
*602 FILLER_24_85
*603 FILLER_24_97
*604 FILLER_25_105
*605 FILLER_25_111
*606 FILLER_25_113
*607 FILLER_25_125
*608 FILLER_25_137
*609 FILLER_25_149
*610 FILLER_25_15
*611 FILLER_25_161
*612 FILLER_25_167
*613 FILLER_25_169
*614 FILLER_25_181
*615 FILLER_25_193
*616 FILLER_25_205
*617 FILLER_25_217
*618 FILLER_25_223
*619 FILLER_25_225
*620 FILLER_25_237
*621 FILLER_25_249
*622 FILLER_25_261
*623 FILLER_25_27
*624 FILLER_25_273
*625 FILLER_25_279
*626 FILLER_25_281
*627 FILLER_25_293
*628 FILLER_25_3
*629 FILLER_25_39
*630 FILLER_25_51
*631 FILLER_25_55
*632 FILLER_25_57
*633 FILLER_25_69
*634 FILLER_25_81
*635 FILLER_25_93
*636 FILLER_26_109
*637 FILLER_26_121
*638 FILLER_26_133
*639 FILLER_26_139
*640 FILLER_26_141
*641 FILLER_26_15
*642 FILLER_26_153
*643 FILLER_26_165
*644 FILLER_26_177
*645 FILLER_26_189
*646 FILLER_26_195
*647 FILLER_26_197
*648 FILLER_26_209
*649 FILLER_26_221
*650 FILLER_26_233
*651 FILLER_26_245
*652 FILLER_26_251
*653 FILLER_26_253
*654 FILLER_26_265
*655 FILLER_26_27
*656 FILLER_26_277
*657 FILLER_26_289
*658 FILLER_26_29
*659 FILLER_26_297
*660 FILLER_26_3
*661 FILLER_26_41
*662 FILLER_26_53
*663 FILLER_26_65
*664 FILLER_26_77
*665 FILLER_26_83
*666 FILLER_26_85
*667 FILLER_26_97
*668 FILLER_27_105
*669 FILLER_27_111
*670 FILLER_27_113
*671 FILLER_27_125
*672 FILLER_27_137
*673 FILLER_27_149
*674 FILLER_27_15
*675 FILLER_27_161
*676 FILLER_27_167
*677 FILLER_27_169
*678 FILLER_27_181
*679 FILLER_27_193
*680 FILLER_27_205
*681 FILLER_27_217
*682 FILLER_27_223
*683 FILLER_27_225
*684 FILLER_27_237
*685 FILLER_27_249
*686 FILLER_27_261
*687 FILLER_27_27
*688 FILLER_27_273
*689 FILLER_27_279
*690 FILLER_27_281
*691 FILLER_27_293
*692 FILLER_27_3
*693 FILLER_27_39
*694 FILLER_27_51
*695 FILLER_27_55
*696 FILLER_27_57
*697 FILLER_27_69
*698 FILLER_27_81
*699 FILLER_27_93
*700 FILLER_28_109
*701 FILLER_28_121
*702 FILLER_28_133
*703 FILLER_28_139
*704 FILLER_28_141
*705 FILLER_28_153
*706 FILLER_28_165
*707 FILLER_28_177
*708 FILLER_28_189
*709 FILLER_28_195
*710 FILLER_28_197
*711 FILLER_28_209
*712 FILLER_28_221
*713 FILLER_28_233
*714 FILLER_28_245
*715 FILLER_28_251
*716 FILLER_28_253
*717 FILLER_28_26
*718 FILLER_28_265
*719 FILLER_28_277
*720 FILLER_28_289
*721 FILLER_28_29
*722 FILLER_28_297
*723 FILLER_28_3
*724 FILLER_28_41
*725 FILLER_28_53
*726 FILLER_28_65
*727 FILLER_28_77
*728 FILLER_28_83
*729 FILLER_28_85
*730 FILLER_28_97
*731 FILLER_29_105
*732 FILLER_29_111
*733 FILLER_29_113
*734 FILLER_29_125
*735 FILLER_29_137
*736 FILLER_29_149
*737 FILLER_29_15
*738 FILLER_29_161
*739 FILLER_29_167
*740 FILLER_29_169
*741 FILLER_29_181
*742 FILLER_29_193
*743 FILLER_29_205
*744 FILLER_29_217
*745 FILLER_29_223
*746 FILLER_29_225
*747 FILLER_29_237
*748 FILLER_29_249
*749 FILLER_29_261
*750 FILLER_29_27
*751 FILLER_29_273
*752 FILLER_29_279
*753 FILLER_29_281
*754 FILLER_29_293
*755 FILLER_29_3
*756 FILLER_29_39
*757 FILLER_29_51
*758 FILLER_29_55
*759 FILLER_29_57
*760 FILLER_29_69
*761 FILLER_29_81
*762 FILLER_29_93
*763 FILLER_2_109
*764 FILLER_2_121
*765 FILLER_2_133
*766 FILLER_2_139
*767 FILLER_2_141
*768 FILLER_2_153
*769 FILLER_2_165
*770 FILLER_2_177
*771 FILLER_2_189
*772 FILLER_2_195
*773 FILLER_2_197
*774 FILLER_2_209
*775 FILLER_2_21
*776 FILLER_2_221
*777 FILLER_2_233
*778 FILLER_2_245
*779 FILLER_2_251
*780 FILLER_2_253
*781 FILLER_2_265
*782 FILLER_2_27
*783 FILLER_2_277
*784 FILLER_2_289
*785 FILLER_2_29
*786 FILLER_2_297
*787 FILLER_2_3
*788 FILLER_2_41
*789 FILLER_2_53
*790 FILLER_2_65
*791 FILLER_2_77
*792 FILLER_2_83
*793 FILLER_2_85
*794 FILLER_2_97
*795 FILLER_30_109
*796 FILLER_30_121
*797 FILLER_30_133
*798 FILLER_30_139
*799 FILLER_30_141
*800 FILLER_30_153
*801 FILLER_30_165
*802 FILLER_30_177
*803 FILLER_30_189
*804 FILLER_30_195
*805 FILLER_30_197
*806 FILLER_30_209
*807 FILLER_30_21
*808 FILLER_30_221
*809 FILLER_30_233
*810 FILLER_30_245
*811 FILLER_30_251
*812 FILLER_30_253
*813 FILLER_30_265
*814 FILLER_30_27
*815 FILLER_30_277
*816 FILLER_30_289
*817 FILLER_30_29
*818 FILLER_30_297
*819 FILLER_30_3
*820 FILLER_30_41
*821 FILLER_30_53
*822 FILLER_30_65
*823 FILLER_30_77
*824 FILLER_30_83
*825 FILLER_30_85
*826 FILLER_30_9
*827 FILLER_30_97
*828 FILLER_31_105
*829 FILLER_31_111
*830 FILLER_31_113
*831 FILLER_31_125
*832 FILLER_31_137
*833 FILLER_31_149
*834 FILLER_31_161
*835 FILLER_31_167
*836 FILLER_31_169
*837 FILLER_31_181
*838 FILLER_31_193
*839 FILLER_31_205
*840 FILLER_31_217
*841 FILLER_31_223
*842 FILLER_31_225
*843 FILLER_31_237
*844 FILLER_31_249
*845 FILLER_31_25
*846 FILLER_31_261
*847 FILLER_31_273
*848 FILLER_31_279
*849 FILLER_31_281
*850 FILLER_31_293
*851 FILLER_31_3
*852 FILLER_31_37
*853 FILLER_31_49
*854 FILLER_31_55
*855 FILLER_31_57
*856 FILLER_31_69
*857 FILLER_31_81
*858 FILLER_31_93
*859 FILLER_32_109
*860 FILLER_32_121
*861 FILLER_32_133
*862 FILLER_32_139
*863 FILLER_32_141
*864 FILLER_32_15
*865 FILLER_32_153
*866 FILLER_32_165
*867 FILLER_32_177
*868 FILLER_32_189
*869 FILLER_32_195
*870 FILLER_32_197
*871 FILLER_32_209
*872 FILLER_32_221
*873 FILLER_32_233
*874 FILLER_32_245
*875 FILLER_32_251
*876 FILLER_32_253
*877 FILLER_32_265
*878 FILLER_32_27
*879 FILLER_32_277
*880 FILLER_32_289
*881 FILLER_32_29
*882 FILLER_32_297
*883 FILLER_32_3
*884 FILLER_32_41
*885 FILLER_32_53
*886 FILLER_32_65
*887 FILLER_32_77
*888 FILLER_32_83
*889 FILLER_32_85
*890 FILLER_32_97
*891 FILLER_33_105
*892 FILLER_33_111
*893 FILLER_33_113
*894 FILLER_33_125
*895 FILLER_33_137
*896 FILLER_33_149
*897 FILLER_33_15
*898 FILLER_33_161
*899 FILLER_33_167
*900 FILLER_33_169
*901 FILLER_33_181
*902 FILLER_33_193
*903 FILLER_33_205
*904 FILLER_33_217
*905 FILLER_33_223
*906 FILLER_33_225
*907 FILLER_33_237
*908 FILLER_33_249
*909 FILLER_33_261
*910 FILLER_33_27
*911 FILLER_33_273
*912 FILLER_33_279
*913 FILLER_33_281
*914 FILLER_33_293
*915 FILLER_33_3
*916 FILLER_33_39
*917 FILLER_33_51
*918 FILLER_33_55
*919 FILLER_33_57
*920 FILLER_33_69
*921 FILLER_33_81
*922 FILLER_33_93
*923 FILLER_34_109
*924 FILLER_34_121
*925 FILLER_34_133
*926 FILLER_34_139
*927 FILLER_34_141
*928 FILLER_34_15
*929 FILLER_34_153
*930 FILLER_34_165
*931 FILLER_34_177
*932 FILLER_34_189
*933 FILLER_34_195
*934 FILLER_34_197
*935 FILLER_34_209
*936 FILLER_34_221
*937 FILLER_34_233
*938 FILLER_34_245
*939 FILLER_34_251
*940 FILLER_34_253
*941 FILLER_34_265
*942 FILLER_34_27
*943 FILLER_34_277
*944 FILLER_34_289
*945 FILLER_34_29
*946 FILLER_34_297
*947 FILLER_34_3
*948 FILLER_34_41
*949 FILLER_34_53
*950 FILLER_34_65
*951 FILLER_34_77
*952 FILLER_34_83
*953 FILLER_34_85
*954 FILLER_34_97
*955 FILLER_35_105
*956 FILLER_35_111
*957 FILLER_35_113
*958 FILLER_35_125
*959 FILLER_35_137
*960 FILLER_35_149
*961 FILLER_35_161
*962 FILLER_35_167
*963 FILLER_35_169
*964 FILLER_35_181
*965 FILLER_35_193
*966 FILLER_35_20
*967 FILLER_35_205
*968 FILLER_35_217
*969 FILLER_35_223
*970 FILLER_35_225
*971 FILLER_35_237
*972 FILLER_35_249
*973 FILLER_35_261
*974 FILLER_35_273
*975 FILLER_35_279
*976 FILLER_35_281
*977 FILLER_35_293
*978 FILLER_35_3
*979 FILLER_35_32
*980 FILLER_35_44
*981 FILLER_35_57
*982 FILLER_35_69
*983 FILLER_35_8
*984 FILLER_35_81
*985 FILLER_35_93
*986 FILLER_36_109
*987 FILLER_36_121
*988 FILLER_36_133
*989 FILLER_36_139
*990 FILLER_36_141
*991 FILLER_36_15
*992 FILLER_36_153
*993 FILLER_36_165
*994 FILLER_36_177
*995 FILLER_36_189
*996 FILLER_36_195
*997 FILLER_36_197
*998 FILLER_36_209
*999 FILLER_36_221
*1000 FILLER_36_233
*1001 FILLER_36_245
*1002 FILLER_36_251
*1003 FILLER_36_253
*1004 FILLER_36_265
*1005 FILLER_36_27
*1006 FILLER_36_277
*1007 FILLER_36_289
*1008 FILLER_36_29
*1009 FILLER_36_297
*1010 FILLER_36_3
*1011 FILLER_36_41
*1012 FILLER_36_53
*1013 FILLER_36_65
*1014 FILLER_36_77
*1015 FILLER_36_83
*1016 FILLER_36_85
*1017 FILLER_36_97
*1018 FILLER_37_105
*1019 FILLER_37_111
*1020 FILLER_37_113
*1021 FILLER_37_125
*1022 FILLER_37_137
*1023 FILLER_37_149
*1024 FILLER_37_15
*1025 FILLER_37_161
*1026 FILLER_37_167
*1027 FILLER_37_169
*1028 FILLER_37_181
*1029 FILLER_37_193
*1030 FILLER_37_205
*1031 FILLER_37_217
*1032 FILLER_37_223
*1033 FILLER_37_225
*1034 FILLER_37_237
*1035 FILLER_37_249
*1036 FILLER_37_261
*1037 FILLER_37_27
*1038 FILLER_37_273
*1039 FILLER_37_279
*1040 FILLER_37_281
*1041 FILLER_37_293
*1042 FILLER_37_3
*1043 FILLER_37_39
*1044 FILLER_37_51
*1045 FILLER_37_55
*1046 FILLER_37_57
*1047 FILLER_37_69
*1048 FILLER_37_81
*1049 FILLER_37_93
*1050 FILLER_38_109
*1051 FILLER_38_121
*1052 FILLER_38_133
*1053 FILLER_38_139
*1054 FILLER_38_141
*1055 FILLER_38_15
*1056 FILLER_38_153
*1057 FILLER_38_165
*1058 FILLER_38_177
*1059 FILLER_38_189
*1060 FILLER_38_195
*1061 FILLER_38_197
*1062 FILLER_38_209
*1063 FILLER_38_221
*1064 FILLER_38_233
*1065 FILLER_38_245
*1066 FILLER_38_251
*1067 FILLER_38_253
*1068 FILLER_38_265
*1069 FILLER_38_27
*1070 FILLER_38_277
*1071 FILLER_38_289
*1072 FILLER_38_29
*1073 FILLER_38_297
*1074 FILLER_38_3
*1075 FILLER_38_41
*1076 FILLER_38_53
*1077 FILLER_38_65
*1078 FILLER_38_77
*1079 FILLER_38_83
*1080 FILLER_38_85
*1081 FILLER_38_97
*1082 FILLER_39_105
*1083 FILLER_39_111
*1084 FILLER_39_113
*1085 FILLER_39_125
*1086 FILLER_39_137
*1087 FILLER_39_149
*1088 FILLER_39_161
*1089 FILLER_39_167
*1090 FILLER_39_169
*1091 FILLER_39_181
*1092 FILLER_39_193
*1093 FILLER_39_20
*1094 FILLER_39_205
*1095 FILLER_39_217
*1096 FILLER_39_223
*1097 FILLER_39_225
*1098 FILLER_39_237
*1099 FILLER_39_249
*1100 FILLER_39_261
*1101 FILLER_39_273
*1102 FILLER_39_279
*1103 FILLER_39_281
*1104 FILLER_39_293
*1105 FILLER_39_3
*1106 FILLER_39_32
*1107 FILLER_39_44
*1108 FILLER_39_57
*1109 FILLER_39_69
*1110 FILLER_39_8
*1111 FILLER_39_81
*1112 FILLER_39_93
*1113 FILLER_3_105
*1114 FILLER_3_111
*1115 FILLER_3_113
*1116 FILLER_3_125
*1117 FILLER_3_137
*1118 FILLER_3_149
*1119 FILLER_3_15
*1120 FILLER_3_161
*1121 FILLER_3_167
*1122 FILLER_3_169
*1123 FILLER_3_181
*1124 FILLER_3_193
*1125 FILLER_3_205
*1126 FILLER_3_217
*1127 FILLER_3_223
*1128 FILLER_3_225
*1129 FILLER_3_237
*1130 FILLER_3_249
*1131 FILLER_3_261
*1132 FILLER_3_27
*1133 FILLER_3_273
*1134 FILLER_3_279
*1135 FILLER_3_281
*1136 FILLER_3_293
*1137 FILLER_3_3
*1138 FILLER_3_39
*1139 FILLER_3_51
*1140 FILLER_3_55
*1141 FILLER_3_57
*1142 FILLER_3_69
*1143 FILLER_3_81
*1144 FILLER_3_93
*1145 FILLER_40_109
*1146 FILLER_40_121
*1147 FILLER_40_133
*1148 FILLER_40_139
*1149 FILLER_40_141
*1150 FILLER_40_15
*1151 FILLER_40_153
*1152 FILLER_40_165
*1153 FILLER_40_177
*1154 FILLER_40_189
*1155 FILLER_40_195
*1156 FILLER_40_197
*1157 FILLER_40_209
*1158 FILLER_40_221
*1159 FILLER_40_233
*1160 FILLER_40_245
*1161 FILLER_40_251
*1162 FILLER_40_253
*1163 FILLER_40_265
*1164 FILLER_40_27
*1165 FILLER_40_277
*1166 FILLER_40_289
*1167 FILLER_40_29
*1168 FILLER_40_297
*1169 FILLER_40_3
*1170 FILLER_40_41
*1171 FILLER_40_53
*1172 FILLER_40_65
*1173 FILLER_40_77
*1174 FILLER_40_83
*1175 FILLER_40_85
*1176 FILLER_40_97
*1177 FILLER_41_105
*1178 FILLER_41_111
*1179 FILLER_41_113
*1180 FILLER_41_125
*1181 FILLER_41_137
*1182 FILLER_41_149
*1183 FILLER_41_15
*1184 FILLER_41_161
*1185 FILLER_41_167
*1186 FILLER_41_169
*1187 FILLER_41_181
*1188 FILLER_41_193
*1189 FILLER_41_205
*1190 FILLER_41_217
*1191 FILLER_41_223
*1192 FILLER_41_225
*1193 FILLER_41_237
*1194 FILLER_41_249
*1195 FILLER_41_261
*1196 FILLER_41_27
*1197 FILLER_41_273
*1198 FILLER_41_279
*1199 FILLER_41_281
*1200 FILLER_41_293
*1201 FILLER_41_3
*1202 FILLER_41_39
*1203 FILLER_41_51
*1204 FILLER_41_55
*1205 FILLER_41_57
*1206 FILLER_41_69
*1207 FILLER_41_81
*1208 FILLER_41_93
*1209 FILLER_42_109
*1210 FILLER_42_121
*1211 FILLER_42_133
*1212 FILLER_42_139
*1213 FILLER_42_141
*1214 FILLER_42_153
*1215 FILLER_42_165
*1216 FILLER_42_177
*1217 FILLER_42_189
*1218 FILLER_42_195
*1219 FILLER_42_197
*1220 FILLER_42_20
*1221 FILLER_42_209
*1222 FILLER_42_221
*1223 FILLER_42_233
*1224 FILLER_42_245
*1225 FILLER_42_251
*1226 FILLER_42_253
*1227 FILLER_42_265
*1228 FILLER_42_277
*1229 FILLER_42_289
*1230 FILLER_42_29
*1231 FILLER_42_297
*1232 FILLER_42_3
*1233 FILLER_42_41
*1234 FILLER_42_53
*1235 FILLER_42_65
*1236 FILLER_42_77
*1237 FILLER_42_8
*1238 FILLER_42_83
*1239 FILLER_42_85
*1240 FILLER_42_97
*1241 FILLER_43_105
*1242 FILLER_43_111
*1243 FILLER_43_113
*1244 FILLER_43_125
*1245 FILLER_43_137
*1246 FILLER_43_149
*1247 FILLER_43_15
*1248 FILLER_43_161
*1249 FILLER_43_167
*1250 FILLER_43_169
*1251 FILLER_43_181
*1252 FILLER_43_193
*1253 FILLER_43_205
*1254 FILLER_43_217
*1255 FILLER_43_223
*1256 FILLER_43_225
*1257 FILLER_43_237
*1258 FILLER_43_249
*1259 FILLER_43_261
*1260 FILLER_43_27
*1261 FILLER_43_273
*1262 FILLER_43_279
*1263 FILLER_43_281
*1264 FILLER_43_293
*1265 FILLER_43_3
*1266 FILLER_43_39
*1267 FILLER_43_51
*1268 FILLER_43_55
*1269 FILLER_43_57
*1270 FILLER_43_69
*1271 FILLER_43_81
*1272 FILLER_43_93
*1273 FILLER_44_109
*1274 FILLER_44_121
*1275 FILLER_44_133
*1276 FILLER_44_139
*1277 FILLER_44_141
*1278 FILLER_44_15
*1279 FILLER_44_153
*1280 FILLER_44_165
*1281 FILLER_44_177
*1282 FILLER_44_189
*1283 FILLER_44_195
*1284 FILLER_44_197
*1285 FILLER_44_209
*1286 FILLER_44_221
*1287 FILLER_44_233
*1288 FILLER_44_245
*1289 FILLER_44_251
*1290 FILLER_44_253
*1291 FILLER_44_265
*1292 FILLER_44_27
*1293 FILLER_44_277
*1294 FILLER_44_289
*1295 FILLER_44_29
*1296 FILLER_44_297
*1297 FILLER_44_3
*1298 FILLER_44_41
*1299 FILLER_44_53
*1300 FILLER_44_65
*1301 FILLER_44_77
*1302 FILLER_44_83
*1303 FILLER_44_85
*1304 FILLER_44_97
*1305 FILLER_45_105
*1306 FILLER_45_111
*1307 FILLER_45_113
*1308 FILLER_45_125
*1309 FILLER_45_137
*1310 FILLER_45_149
*1311 FILLER_45_15
*1312 FILLER_45_161
*1313 FILLER_45_167
*1314 FILLER_45_169
*1315 FILLER_45_181
*1316 FILLER_45_193
*1317 FILLER_45_205
*1318 FILLER_45_217
*1319 FILLER_45_223
*1320 FILLER_45_225
*1321 FILLER_45_237
*1322 FILLER_45_249
*1323 FILLER_45_261
*1324 FILLER_45_27
*1325 FILLER_45_273
*1326 FILLER_45_279
*1327 FILLER_45_281
*1328 FILLER_45_293
*1329 FILLER_45_3
*1330 FILLER_45_39
*1331 FILLER_45_51
*1332 FILLER_45_55
*1333 FILLER_45_57
*1334 FILLER_45_69
*1335 FILLER_45_81
*1336 FILLER_45_93
*1337 FILLER_46_109
*1338 FILLER_46_121
*1339 FILLER_46_133
*1340 FILLER_46_139
*1341 FILLER_46_141
*1342 FILLER_46_153
*1343 FILLER_46_165
*1344 FILLER_46_177
*1345 FILLER_46_189
*1346 FILLER_46_195
*1347 FILLER_46_197
*1348 FILLER_46_20
*1349 FILLER_46_209
*1350 FILLER_46_221
*1351 FILLER_46_233
*1352 FILLER_46_245
*1353 FILLER_46_251
*1354 FILLER_46_253
*1355 FILLER_46_265
*1356 FILLER_46_277
*1357 FILLER_46_289
*1358 FILLER_46_29
*1359 FILLER_46_297
*1360 FILLER_46_3
*1361 FILLER_46_41
*1362 FILLER_46_53
*1363 FILLER_46_65
*1364 FILLER_46_77
*1365 FILLER_46_8
*1366 FILLER_46_83
*1367 FILLER_46_85
*1368 FILLER_46_97
*1369 FILLER_47_105
*1370 FILLER_47_111
*1371 FILLER_47_113
*1372 FILLER_47_125
*1373 FILLER_47_137
*1374 FILLER_47_149
*1375 FILLER_47_15
*1376 FILLER_47_161
*1377 FILLER_47_167
*1378 FILLER_47_169
*1379 FILLER_47_181
*1380 FILLER_47_193
*1381 FILLER_47_205
*1382 FILLER_47_217
*1383 FILLER_47_223
*1384 FILLER_47_225
*1385 FILLER_47_237
*1386 FILLER_47_249
*1387 FILLER_47_261
*1388 FILLER_47_27
*1389 FILLER_47_273
*1390 FILLER_47_279
*1391 FILLER_47_281
*1392 FILLER_47_293
*1393 FILLER_47_3
*1394 FILLER_47_39
*1395 FILLER_47_51
*1396 FILLER_47_55
*1397 FILLER_47_57
*1398 FILLER_47_69
*1399 FILLER_47_81
*1400 FILLER_47_93
*1401 FILLER_48_109
*1402 FILLER_48_121
*1403 FILLER_48_133
*1404 FILLER_48_139
*1405 FILLER_48_141
*1406 FILLER_48_15
*1407 FILLER_48_153
*1408 FILLER_48_165
*1409 FILLER_48_177
*1410 FILLER_48_189
*1411 FILLER_48_195
*1412 FILLER_48_197
*1413 FILLER_48_209
*1414 FILLER_48_221
*1415 FILLER_48_233
*1416 FILLER_48_245
*1417 FILLER_48_251
*1418 FILLER_48_253
*1419 FILLER_48_265
*1420 FILLER_48_27
*1421 FILLER_48_277
*1422 FILLER_48_289
*1423 FILLER_48_29
*1424 FILLER_48_297
*1425 FILLER_48_3
*1426 FILLER_48_41
*1427 FILLER_48_53
*1428 FILLER_48_65
*1429 FILLER_48_77
*1430 FILLER_48_83
*1431 FILLER_48_85
*1432 FILLER_48_97
*1433 FILLER_49_105
*1434 FILLER_49_111
*1435 FILLER_49_113
*1436 FILLER_49_125
*1437 FILLER_49_137
*1438 FILLER_49_149
*1439 FILLER_49_15
*1440 FILLER_49_161
*1441 FILLER_49_167
*1442 FILLER_49_169
*1443 FILLER_49_181
*1444 FILLER_49_193
*1445 FILLER_49_205
*1446 FILLER_49_217
*1447 FILLER_49_223
*1448 FILLER_49_225
*1449 FILLER_49_237
*1450 FILLER_49_249
*1451 FILLER_49_261
*1452 FILLER_49_27
*1453 FILLER_49_273
*1454 FILLER_49_279
*1455 FILLER_49_281
*1456 FILLER_49_293
*1457 FILLER_49_3
*1458 FILLER_49_39
*1459 FILLER_49_51
*1460 FILLER_49_55
*1461 FILLER_49_57
*1462 FILLER_49_69
*1463 FILLER_49_81
*1464 FILLER_49_93
*1465 FILLER_4_109
*1466 FILLER_4_121
*1467 FILLER_4_133
*1468 FILLER_4_139
*1469 FILLER_4_141
*1470 FILLER_4_15
*1471 FILLER_4_153
*1472 FILLER_4_165
*1473 FILLER_4_177
*1474 FILLER_4_189
*1475 FILLER_4_195
*1476 FILLER_4_197
*1477 FILLER_4_209
*1478 FILLER_4_221
*1479 FILLER_4_233
*1480 FILLER_4_245
*1481 FILLER_4_251
*1482 FILLER_4_253
*1483 FILLER_4_265
*1484 FILLER_4_27
*1485 FILLER_4_277
*1486 FILLER_4_289
*1487 FILLER_4_29
*1488 FILLER_4_297
*1489 FILLER_4_3
*1490 FILLER_4_41
*1491 FILLER_4_53
*1492 FILLER_4_65
*1493 FILLER_4_77
*1494 FILLER_4_83
*1495 FILLER_4_85
*1496 FILLER_4_97
*1497 FILLER_50_109
*1498 FILLER_50_121
*1499 FILLER_50_133
*1500 FILLER_50_139
*1501 FILLER_50_141
*1502 FILLER_50_153
*1503 FILLER_50_165
*1504 FILLER_50_177
*1505 FILLER_50_189
*1506 FILLER_50_195
*1507 FILLER_50_197
*1508 FILLER_50_20
*1509 FILLER_50_209
*1510 FILLER_50_221
*1511 FILLER_50_233
*1512 FILLER_50_245
*1513 FILLER_50_251
*1514 FILLER_50_253
*1515 FILLER_50_265
*1516 FILLER_50_277
*1517 FILLER_50_289
*1518 FILLER_50_29
*1519 FILLER_50_297
*1520 FILLER_50_3
*1521 FILLER_50_41
*1522 FILLER_50_53
*1523 FILLER_50_65
*1524 FILLER_50_77
*1525 FILLER_50_8
*1526 FILLER_50_83
*1527 FILLER_50_85
*1528 FILLER_50_97
*1529 FILLER_51_105
*1530 FILLER_51_111
*1531 FILLER_51_113
*1532 FILLER_51_125
*1533 FILLER_51_137
*1534 FILLER_51_149
*1535 FILLER_51_15
*1536 FILLER_51_161
*1537 FILLER_51_167
*1538 FILLER_51_169
*1539 FILLER_51_181
*1540 FILLER_51_193
*1541 FILLER_51_205
*1542 FILLER_51_217
*1543 FILLER_51_223
*1544 FILLER_51_225
*1545 FILLER_51_237
*1546 FILLER_51_249
*1547 FILLER_51_261
*1548 FILLER_51_27
*1549 FILLER_51_273
*1550 FILLER_51_279
*1551 FILLER_51_281
*1552 FILLER_51_293
*1553 FILLER_51_3
*1554 FILLER_51_39
*1555 FILLER_51_51
*1556 FILLER_51_55
*1557 FILLER_51_57
*1558 FILLER_51_69
*1559 FILLER_51_81
*1560 FILLER_51_93
*1561 FILLER_52_109
*1562 FILLER_52_121
*1563 FILLER_52_133
*1564 FILLER_52_139
*1565 FILLER_52_141
*1566 FILLER_52_15
*1567 FILLER_52_153
*1568 FILLER_52_165
*1569 FILLER_52_177
*1570 FILLER_52_189
*1571 FILLER_52_195
*1572 FILLER_52_197
*1573 FILLER_52_209
*1574 FILLER_52_221
*1575 FILLER_52_233
*1576 FILLER_52_245
*1577 FILLER_52_251
*1578 FILLER_52_253
*1579 FILLER_52_265
*1580 FILLER_52_27
*1581 FILLER_52_277
*1582 FILLER_52_289
*1583 FILLER_52_29
*1584 FILLER_52_297
*1585 FILLER_52_3
*1586 FILLER_52_41
*1587 FILLER_52_53
*1588 FILLER_52_65
*1589 FILLER_52_77
*1590 FILLER_52_83
*1591 FILLER_52_85
*1592 FILLER_52_97
*1593 FILLER_53_105