*SPEF "ieee 1481-1999"
*DESIGN "user_module_357106633951414273"
*DATE "11:11:11 Fri 11 11, 1111"
*VENDOR "OpenRCX"
*PROGRAM "Parallel Extraction"
*VERSION "1.0"
*DESIGN_FLOW "NAME_SCOPE LOCAL" "PIN_CAP NONE"
*DIVIDER /
*DELIMITER :
*BUS_DELIMITER []
*T_UNIT 1 NS
*C_UNIT 1 PF
*R_UNIT 1 OHM
*L_UNIT 1 HENRY

*NAME_MAP
*1 io_in[0]
*2 io_in[1]
*3 io_in[2]
*4 io_in[3]
*5 io_in[4]
*6 io_in[5]
*7 io_in[6]
*8 io_in[7]
*9 io_out[0]
*10 io_out[1]
*11 io_out[2]
*12 io_out[3]
*13 io_out[4]
*14 io_out[5]
*15 io_out[6]
*16 net10
*19 _00_
*20 _01_
*21 _02_
*22 _03_
*23 _04_
*24 _05_
*25 _06_
*26 _07_
*27 _08_
*28 _09_
*29 _10_
*30 _11_
*31 _12_
*32 _13_
*33 _14_
*34 flipflop10\.d
*35 flipflop10\.q
*36 flipflop17\.q
*37 flipflop18\.q
*38 flipflop19\.d
*39 flipflop19\.q
*40 flipflop2\.q
*41 flipflop20\.q
*42 flipflop21\.q
*43 flipflop22\.d
*44 flipflop22\.q
*45 flipflop23\.q
*46 flipflop24\.q
*47 flipflop25\.d
*48 flipflop25\.q
*49 flipflop3\.q
*50 flipflop4\.d
*51 flipflop4\.notq
*52 flipflop4\.q
*53 flipflop5\.q
*54 flipflop6\.q
*55 flipflop7\.d
*56 flipflop7\.q
*57 flipflop8\.q
*58 flipflop9\.q
*59 gate12\.out
*60 gate7\.out
*61 gate9\.out
*62 net1
*63 net2
*64 net3
*65 net4
*66 net5
*67 net6
*68 net7
*69 net8
*70 net9
*71 FILLER_0_109
*72 FILLER_0_113
*73 FILLER_0_125
*74 FILLER_0_137
*75 FILLER_0_141
*76 FILLER_0_15
*77 FILLER_0_153
*78 FILLER_0_165
*79 FILLER_0_169
*80 FILLER_0_181
*81 FILLER_0_193
*82 FILLER_0_197
*83 FILLER_0_209
*84 FILLER_0_221
*85 FILLER_0_225
*86 FILLER_0_237
*87 FILLER_0_249
*88 FILLER_0_253
*89 FILLER_0_265
*90 FILLER_0_27
*91 FILLER_0_277
*92 FILLER_0_281
*93 FILLER_0_29
*94 FILLER_0_293
*95 FILLER_0_3
*96 FILLER_0_41
*97 FILLER_0_53
*98 FILLER_0_57
*99 FILLER_0_69
*100 FILLER_0_81
*101 FILLER_0_85
*102 FILLER_0_97
*103 FILLER_10_109
*104 FILLER_10_121
*105 FILLER_10_133
*106 FILLER_10_139
*107 FILLER_10_141
*108 FILLER_10_153
*109 FILLER_10_165
*110 FILLER_10_177
*111 FILLER_10_189
*112 FILLER_10_195
*113 FILLER_10_197
*114 FILLER_10_209
*115 FILLER_10_21
*116 FILLER_10_221
*117 FILLER_10_233
*118 FILLER_10_245
*119 FILLER_10_251
*120 FILLER_10_253
*121 FILLER_10_265
*122 FILLER_10_27
*123 FILLER_10_277
*124 FILLER_10_289
*125 FILLER_10_29
*126 FILLER_10_297
*127 FILLER_10_3
*128 FILLER_10_41
*129 FILLER_10_53
*130 FILLER_10_65
*131 FILLER_10_77
*132 FILLER_10_83
*133 FILLER_10_85
*134 FILLER_10_97
*135 FILLER_11_105
*136 FILLER_11_111
*137 FILLER_11_113
*138 FILLER_11_125
*139 FILLER_11_137
*140 FILLER_11_149
*141 FILLER_11_16
*142 FILLER_11_161
*143 FILLER_11_167
*144 FILLER_11_169
*145 FILLER_11_181
*146 FILLER_11_193
*147 FILLER_11_205
*148 FILLER_11_217
*149 FILLER_11_223
*150 FILLER_11_225
*151 FILLER_11_237
*152 FILLER_11_249
*153 FILLER_11_261
*154 FILLER_11_273
*155 FILLER_11_279
*156 FILLER_11_281
*157 FILLER_11_293
*158 FILLER_11_3
*159 FILLER_11_33
*160 FILLER_11_45
*161 FILLER_11_53
*162 FILLER_11_57
*163 FILLER_11_69
*164 FILLER_11_8
*165 FILLER_11_81
*166 FILLER_11_93
*167 FILLER_12_109
*168 FILLER_12_121
*169 FILLER_12_133
*170 FILLER_12_139
*171 FILLER_12_141
*172 FILLER_12_153
*173 FILLER_12_16
*174 FILLER_12_165
*175 FILLER_12_177
*176 FILLER_12_189
*177 FILLER_12_195
*178 FILLER_12_197
*179 FILLER_12_209
*180 FILLER_12_221
*181 FILLER_12_233
*182 FILLER_12_245
*183 FILLER_12_251
*184 FILLER_12_253
*185 FILLER_12_265
*186 FILLER_12_277
*187 FILLER_12_289
*188 FILLER_12_29
*189 FILLER_12_297
*190 FILLER_12_3
*191 FILLER_12_41
*192 FILLER_12_53
*193 FILLER_12_65
*194 FILLER_12_77
*195 FILLER_12_83
*196 FILLER_12_85
*197 FILLER_12_9
*198 FILLER_12_97
*199 FILLER_13_105
*200 FILLER_13_111
*201 FILLER_13_113
*202 FILLER_13_125
*203 FILLER_13_137
*204 FILLER_13_149
*205 FILLER_13_16
*206 FILLER_13_161
*207 FILLER_13_167
*208 FILLER_13_169
*209 FILLER_13_181
*210 FILLER_13_193
*211 FILLER_13_205
*212 FILLER_13_217
*213 FILLER_13_223
*214 FILLER_13_225
*215 FILLER_13_237
*216 FILLER_13_249
*217 FILLER_13_261
*218 FILLER_13_273
*219 FILLER_13_279
*220 FILLER_13_281
*221 FILLER_13_293
*222 FILLER_13_3
*223 FILLER_13_31
*224 FILLER_13_43
*225 FILLER_13_55
*226 FILLER_13_57
*227 FILLER_13_69
*228 FILLER_13_81
*229 FILLER_13_93
*230 FILLER_14_109
*231 FILLER_14_121
*232 FILLER_14_133
*233 FILLER_14_139
*234 FILLER_14_141
*235 FILLER_14_153
*236 FILLER_14_165
*237 FILLER_14_177
*238 FILLER_14_189
*239 FILLER_14_195
*240 FILLER_14_197
*241 FILLER_14_209
*242 FILLER_14_21
*243 FILLER_14_221
*244 FILLER_14_233
*245 FILLER_14_245
*246 FILLER_14_251
*247 FILLER_14_253
*248 FILLER_14_265
*249 FILLER_14_27
*250 FILLER_14_277
*251 FILLER_14_289
*252 FILLER_14_29
*253 FILLER_14_297
*254 FILLER_14_3
*255 FILLER_14_47
*256 FILLER_14_59
*257 FILLER_14_71
*258 FILLER_14_83
*259 FILLER_14_85
*260 FILLER_14_97
*261 FILLER_15_105
*262 FILLER_15_111
*263 FILLER_15_113
*264 FILLER_15_125
*265 FILLER_15_137
*266 FILLER_15_149
*267 FILLER_15_161
*268 FILLER_15_167
*269 FILLER_15_169
*270 FILLER_15_17
*271 FILLER_15_181
*272 FILLER_15_193
*273 FILLER_15_205
*274 FILLER_15_217
*275 FILLER_15_223
*276 FILLER_15_225
*277 FILLER_15_23
*278 FILLER_15_237
*279 FILLER_15_249
*280 FILLER_15_261
*281 FILLER_15_273
*282 FILLER_15_279
*283 FILLER_15_28
*284 FILLER_15_281
*285 FILLER_15_293
*286 FILLER_15_3
*287 FILLER_15_35
*288 FILLER_15_47
*289 FILLER_15_55
*290 FILLER_15_57
*291 FILLER_15_69
*292 FILLER_15_81
*293 FILLER_15_9
*294 FILLER_15_93
*295 FILLER_16_109
*296 FILLER_16_121
*297 FILLER_16_133
*298 FILLER_16_139
*299 FILLER_16_141
*300 FILLER_16_153
*301 FILLER_16_165
*302 FILLER_16_177
*303 FILLER_16_189
*304 FILLER_16_195
*305 FILLER_16_197
*306 FILLER_16_209
*307 FILLER_16_221
*308 FILLER_16_233
*309 FILLER_16_245
*310 FILLER_16_251
*311 FILLER_16_253
*312 FILLER_16_26
*313 FILLER_16_265
*314 FILLER_16_277
*315 FILLER_16_289
*316 FILLER_16_29
*317 FILLER_16_297
*318 FILLER_16_3
*319 FILLER_16_35
*320 FILLER_16_47
*321 FILLER_16_59
*322 FILLER_16_71
*323 FILLER_16_83
*324 FILLER_16_85
*325 FILLER_16_9
*326 FILLER_16_97
*327 FILLER_17_105
*328 FILLER_17_111
*329 FILLER_17_113
*330 FILLER_17_125
*331 FILLER_17_137
*332 FILLER_17_149
*333 FILLER_17_161
*334 FILLER_17_167
*335 FILLER_17_169
*336 FILLER_17_181
*337 FILLER_17_19
*338 FILLER_17_193
*339 FILLER_17_205
*340 FILLER_17_217
*341 FILLER_17_223
*342 FILLER_17_225
*343 FILLER_17_237
*344 FILLER_17_249
*345 FILLER_17_261
*346 FILLER_17_273
*347 FILLER_17_279
*348 FILLER_17_281
*349 FILLER_17_293
*350 FILLER_17_3
*351 FILLER_17_39
*352 FILLER_17_51
*353 FILLER_17_55
*354 FILLER_17_57
*355 FILLER_17_69
*356 FILLER_17_8
*357 FILLER_17_81
*358 FILLER_17_93
*359 FILLER_18_109
*360 FILLER_18_121
*361 FILLER_18_133
*362 FILLER_18_139
*363 FILLER_18_141
*364 FILLER_18_153
*365 FILLER_18_165
*366 FILLER_18_177
*367 FILLER_18_189
*368 FILLER_18_195
*369 FILLER_18_197
*370 FILLER_18_209
*371 FILLER_18_21
*372 FILLER_18_221
*373 FILLER_18_233
*374 FILLER_18_245
*375 FILLER_18_251
*376 FILLER_18_253
*377 FILLER_18_265
*378 FILLER_18_27
*379 FILLER_18_277
*380 FILLER_18_289
*381 FILLER_18_29
*382 FILLER_18_297
*383 FILLER_18_3
*384 FILLER_18_34
*385 FILLER_18_46
*386 FILLER_18_58
*387 FILLER_18_70
*388 FILLER_18_82
*389 FILLER_18_85
*390 FILLER_18_97
*391 FILLER_19_105
*392 FILLER_19_111
*393 FILLER_19_113
*394 FILLER_19_125
*395 FILLER_19_137
*396 FILLER_19_149
*397 FILLER_19_161
*398 FILLER_19_167
*399 FILLER_19_169
*400 FILLER_19_181
*401 FILLER_19_193
*402 FILLER_19_205
*403 FILLER_19_21
*404 FILLER_19_217
*405 FILLER_19_223
*406 FILLER_19_225
*407 FILLER_19_237
*408 FILLER_19_249
*409 FILLER_19_261
*410 FILLER_19_273
*411 FILLER_19_279
*412 FILLER_19_281
*413 FILLER_19_293
*414 FILLER_19_3
*415 FILLER_19_33
*416 FILLER_19_45
*417 FILLER_19_53
*418 FILLER_19_57
*419 FILLER_19_69
*420 FILLER_19_81
*421 FILLER_19_93
*422 FILLER_1_105
*423 FILLER_1_111
*424 FILLER_1_113
*425 FILLER_1_125
*426 FILLER_1_137
*427 FILLER_1_149
*428 FILLER_1_15
*429 FILLER_1_161
*430 FILLER_1_167
*431 FILLER_1_169
*432 FILLER_1_181
*433 FILLER_1_193
*434 FILLER_1_205
*435 FILLER_1_217
*436 FILLER_1_223
*437 FILLER_1_225
*438 FILLER_1_237
*439 FILLER_1_249
*440 FILLER_1_261
*441 FILLER_1_27
*442 FILLER_1_273
*443 FILLER_1_279
*444 FILLER_1_281
*445 FILLER_1_293
*446 FILLER_1_3
*447 FILLER_1_39
*448 FILLER_1_51
*449 FILLER_1_55
*450 FILLER_1_57
*451 FILLER_1_69
*452 FILLER_1_81
*453 FILLER_1_93
*454 FILLER_20_109
*455 FILLER_20_121
*456 FILLER_20_133
*457 FILLER_20_139
*458 FILLER_20_141
*459 FILLER_20_153
*460 FILLER_20_165
*461 FILLER_20_177
*462 FILLER_20_189
*463 FILLER_20_195
*464 FILLER_20_197
*465 FILLER_20_209
*466 FILLER_20_221
*467 FILLER_20_233
*468 FILLER_20_24
*469 FILLER_20_245
*470 FILLER_20_251
*471 FILLER_20_253
*472 FILLER_20_265
*473 FILLER_20_277
*474 FILLER_20_289
*475 FILLER_20_29
*476 FILLER_20_297
*477 FILLER_20_3
*478 FILLER_20_34
*479 FILLER_20_46
*480 FILLER_20_58
*481 FILLER_20_7
*482 FILLER_20_70
*483 FILLER_20_82
*484 FILLER_20_85
*485 FILLER_20_97
*486 FILLER_21_105
*487 FILLER_21_111
*488 FILLER_21_113
*489 FILLER_21_125
*490 FILLER_21_137
*491 FILLER_21_149
*492 FILLER_21_161
*493 FILLER_21_167
*494 FILLER_21_169
*495 FILLER_21_181
*496 FILLER_21_193
*497 FILLER_21_20
*498 FILLER_21_205
*499 FILLER_21_217
*500 FILLER_21_223
*501 FILLER_21_225
*502 FILLER_21_237
*503 FILLER_21_249
*504 FILLER_21_261
*505 FILLER_21_273
*506 FILLER_21_279
*507 FILLER_21_281
*508 FILLER_21_293
*509 FILLER_21_3
*510 FILLER_21_40
*511 FILLER_21_52
*512 FILLER_21_57
*513 FILLER_21_69
*514 FILLER_21_81
*515 FILLER_21_9
*516 FILLER_21_93
*517 FILLER_22_109
*518 FILLER_22_121
*519 FILLER_22_133
*520 FILLER_22_139
*521 FILLER_22_141
*522 FILLER_22_153
*523 FILLER_22_165
*524 FILLER_22_177
*525 FILLER_22_189
*526 FILLER_22_195
*527 FILLER_22_197
*528 FILLER_22_20
*529 FILLER_22_209
*530 FILLER_22_221
*531 FILLER_22_233
*532 FILLER_22_245
*533 FILLER_22_251
*534 FILLER_22_253
*535 FILLER_22_26
*536 FILLER_22_265
*537 FILLER_22_277
*538 FILLER_22_289
*539 FILLER_22_29
*540 FILLER_22_297
*541 FILLER_22_3
*542 FILLER_22_41
*543 FILLER_22_53
*544 FILLER_22_65
*545 FILLER_22_77
*546 FILLER_22_8
*547 FILLER_22_83
*548 FILLER_22_85
*549 FILLER_22_97
*550 FILLER_23_105
*551 FILLER_23_111
*552 FILLER_23_113
*553 FILLER_23_125
*554 FILLER_23_137
*555 FILLER_23_149
*556 FILLER_23_161
*557 FILLER_23_167
*558 FILLER_23_169
*559 FILLER_23_181
*560 FILLER_23_193
*561 FILLER_23_205
*562 FILLER_23_21
*563 FILLER_23_217
*564 FILLER_23_223
*565 FILLER_23_225
*566 FILLER_23_237
*567 FILLER_23_249
*568 FILLER_23_261
*569 FILLER_23_273
*570 FILLER_23_279
*571 FILLER_23_281
*572 FILLER_23_29
*573 FILLER_23_293
*574 FILLER_23_3
*575 FILLER_23_41
*576 FILLER_23_53
*577 FILLER_23_57
*578 FILLER_23_69
*579 FILLER_23_81
*580 FILLER_23_93
*581 FILLER_24_109
*582 FILLER_24_121
*583 FILLER_24_133
*584 FILLER_24_139
*585 FILLER_24_141
*586 FILLER_24_153
*587 FILLER_24_165
*588 FILLER_24_177
*589 FILLER_24_189
*590 FILLER_24_195
*591 FILLER_24_197
*592 FILLER_24_209
*593 FILLER_24_221
*594 FILLER_24_23
*595 FILLER_24_233
*596 FILLER_24_245
*597 FILLER_24_251
*598 FILLER_24_253
*599 FILLER_24_265
*600 FILLER_24_27
*601 FILLER_24_277
*602 FILLER_24_289
*603 FILLER_24_29
*604 FILLER_24_297
*605 FILLER_24_3
*606 FILLER_24_47
*607 FILLER_24_59
*608 FILLER_24_71
*609 FILLER_24_83
*610 FILLER_24_85
*611 FILLER_24_97
*612 FILLER_25_105
*613 FILLER_25_111
*614 FILLER_25_113
*615 FILLER_25_125
*616 FILLER_25_137
*617 FILLER_25_149
*618 FILLER_25_161
*619 FILLER_25_167
*620 FILLER_25_169
*621 FILLER_25_17
*622 FILLER_25_181
*623 FILLER_25_193
*624 FILLER_25_205
*625 FILLER_25_217
*626 FILLER_25_223
*627 FILLER_25_225
*628 FILLER_25_237
*629 FILLER_25_249
*630 FILLER_25_26
*631 FILLER_25_261
*632 FILLER_25_273
*633 FILLER_25_279
*634 FILLER_25_281
*635 FILLER_25_293
*636 FILLER_25_3
*637 FILLER_25_33
*638 FILLER_25_45
*639 FILLER_25_53
*640 FILLER_25_57
*641 FILLER_25_69
*642 FILLER_25_81
*643 FILLER_25_9
*644 FILLER_25_93
*645 FILLER_26_109
*646 FILLER_26_121
*647 FILLER_26_133
*648 FILLER_26_139
*649 FILLER_26_141
*650 FILLER_26_153
*651 FILLER_26_165
*652 FILLER_26_177
*653 FILLER_26_189
*654 FILLER_26_195
*655 FILLER_26_197
*656 FILLER_26_209
*657 FILLER_26_21
*658 FILLER_26_221
*659 FILLER_26_233
*660 FILLER_26_245
*661 FILLER_26_251
*662 FILLER_26_253
*663 FILLER_26_265
*664 FILLER_26_27
*665 FILLER_26_277
*666 FILLER_26_289
*667 FILLER_26_29
*668 FILLER_26_297
*669 FILLER_26_3
*670 FILLER_26_41
*671 FILLER_26_53
*672 FILLER_26_65
*673 FILLER_26_77
*674 FILLER_26_83
*675 FILLER_26_85
*676 FILLER_26_97
*677 FILLER_27_105
*678 FILLER_27_111
*679 FILLER_27_113
*680 FILLER_27_125
*681 FILLER_27_137
*682 FILLER_27_149
*683 FILLER_27_161
*684 FILLER_27_167
*685 FILLER_27_169
*686 FILLER_27_181
*687 FILLER_27_193
*688 FILLER_27_20
*689 FILLER_27_205
*690 FILLER_27_217
*691 FILLER_27_223
*692 FILLER_27_225
*693 FILLER_27_237
*694 FILLER_27_249
*695 FILLER_27_261
*696 FILLER_27_273
*697 FILLER_27_279
*698 FILLER_27_281
*699 FILLER_27_293
*700 FILLER_27_3
*701 FILLER_27_37
*702 FILLER_27_49
*703 FILLER_27_55
*704 FILLER_27_57
*705 FILLER_27_69
*706 FILLER_27_8
*707 FILLER_27_81
*708 FILLER_27_93
*709 FILLER_28_109
*710 FILLER_28_121
*711 FILLER_28_13
*712 FILLER_28_133
*713 FILLER_28_139
*714 FILLER_28_141
*715 FILLER_28_153
*716 FILLER_28_165
*717 FILLER_28_177
*718 FILLER_28_189
*719 FILLER_28_195
*720 FILLER_28_197
*721 FILLER_28_209
*722 FILLER_28_221
*723 FILLER_28_233
*724 FILLER_28_245
*725 FILLER_28_251
*726 FILLER_28_253
*727 FILLER_28_26
*728 FILLER_28_265
*729 FILLER_28_277
*730 FILLER_28_289
*731 FILLER_28_29
*732 FILLER_28_297
*733 FILLER_28_3
*734 FILLER_28_37
*735 FILLER_28_49
*736 FILLER_28_61
*737 FILLER_28_73
*738 FILLER_28_81
*739 FILLER_28_85
*740 FILLER_28_9
*741 FILLER_28_97
*742 FILLER_29_105
*743 FILLER_29_111
*744 FILLER_29_113
*745 FILLER_29_125
*746 FILLER_29_137
*747 FILLER_29_149
*748 FILLER_29_161
*749 FILLER_29_167
*750 FILLER_29_169
*751 FILLER_29_181
*752 FILLER_29_193
*753 FILLER_29_205
*754 FILLER_29_21
*755 FILLER_29_217
*756 FILLER_29_223
*757 FILLER_29_225
*758 FILLER_29_237
*759 FILLER_29_249
*760 FILLER_29_261
*761 FILLER_29_273
*762 FILLER_29_279
*763 FILLER_29_281
*764 FILLER_29_293
*765 FILLER_29_3
*766 FILLER_29_32
*767 FILLER_29_44
*768 FILLER_29_57
*769 FILLER_29_69
*770 FILLER_29_81
*771 FILLER_29_93
*772 FILLER_2_109
*773 FILLER_2_121
*774 FILLER_2_133
*775 FILLER_2_139
*776 FILLER_2_141
*777 FILLER_2_15
*778 FILLER_2_153
*779 FILLER_2_165
*780 FILLER_2_177
*781 FILLER_2_189
*782 FILLER_2_195
*783 FILLER_2_197
*784 FILLER_2_209
*785 FILLER_2_221
*786 FILLER_2_233
*787 FILLER_2_245
*788 FILLER_2_251
*789 FILLER_2_253
*790 FILLER_2_265
*791 FILLER_2_27
*792 FILLER_2_277
*793 FILLER_2_289
*794 FILLER_2_29
*795 FILLER_2_297
*796 FILLER_2_3
*797 FILLER_2_41
*798 FILLER_2_53
*799 FILLER_2_65
*800 FILLER_2_77
*801 FILLER_2_83
*802 FILLER_2_85
*803 FILLER_2_97
*804 FILLER_30_109
*805 FILLER_30_121
*806 FILLER_30_133
*807 FILLER_30_139
*808 FILLER_30_141
*809 FILLER_30_153
*810 FILLER_30_165
*811 FILLER_30_177
*812 FILLER_30_189
*813 FILLER_30_195
*814 FILLER_30_197
*815 FILLER_30_209
*816 FILLER_30_21
*817 FILLER_30_221
*818 FILLER_30_233
*819 FILLER_30_245
*820 FILLER_30_251
*821 FILLER_30_253
*822 FILLER_30_265
*823 FILLER_30_27
*824 FILLER_30_277
*825 FILLER_30_289
*826 FILLER_30_29
*827 FILLER_30_297
*828 FILLER_30_3
*829 FILLER_30_41
*830 FILLER_30_53
*831 FILLER_30_65
*832 FILLER_30_77
*833 FILLER_30_83
*834 FILLER_30_85
*835 FILLER_30_9
*836 FILLER_30_97
*837 FILLER_31_105
*838 FILLER_31_111
*839 FILLER_31_113
*840 FILLER_31_12
*841 FILLER_31_125
*842 FILLER_31_137
*843 FILLER_31_149
*844 FILLER_31_161
*845 FILLER_31_167
*846 FILLER_31_169
*847 FILLER_31_181
*848 FILLER_31_193
*849 FILLER_31_20
*850 FILLER_31_205
*851 FILLER_31_217
*852 FILLER_31_223
*853 FILLER_31_225
*854 FILLER_31_237
*855 FILLER_31_249
*856 FILLER_31_261
*857 FILLER_31_273
*858 FILLER_31_279
*859 FILLER_31_281
*860 FILLER_31_293
*861 FILLER_31_3
*862 FILLER_31_32
*863 FILLER_31_44
*864 FILLER_31_57
*865 FILLER_31_69
*866 FILLER_31_81
*867 FILLER_31_93
*868 FILLER_32_10
*869 FILLER_32_109
*870 FILLER_32_121
*871 FILLER_32_133
*872 FILLER_32_139
*873 FILLER_32_141
*874 FILLER_32_153
*875 FILLER_32_165
*876 FILLER_32_17
*877 FILLER_32_177
*878 FILLER_32_189
*879 FILLER_32_195
*880 FILLER_32_197
*881 FILLER_32_209
*882 FILLER_32_221
*883 FILLER_32_233
*884 FILLER_32_245
*885 FILLER_32_25
*886 FILLER_32_251
*887 FILLER_32_253
*888 FILLER_32_265
*889 FILLER_32_277
*890 FILLER_32_289
*891 FILLER_32_29
*892 FILLER_32_297
*893 FILLER_32_3
*894 FILLER_32_41
*895 FILLER_32_53
*896 FILLER_32_65
*897 FILLER_32_77
*898 FILLER_32_83
*899 FILLER_32_85
*900 FILLER_32_97
*901 FILLER_33_105
*902 FILLER_33_111
*903 FILLER_33_113
*904 FILLER_33_125
*905 FILLER_33_137
*906 FILLER_33_149
*907 FILLER_33_161
*908 FILLER_33_167
*909 FILLER_33_169
*910 FILLER_33_181
*911 FILLER_33_193
*912 FILLER_33_20
*913 FILLER_33_205
*914 FILLER_33_217
*915 FILLER_33_223
*916 FILLER_33_225
*917 FILLER_33_237
*918 FILLER_33_249
*919 FILLER_33_261
*920 FILLER_33_273
*921 FILLER_33_279
*922 FILLER_33_281
*923 FILLER_33_293
*924 FILLER_33_3
*925 FILLER_33_32
*926 FILLER_33_44
*927 FILLER_33_57
*928 FILLER_33_69
*929 FILLER_33_8
*930 FILLER_33_81
*931 FILLER_33_93
*932 FILLER_34_109
*933 FILLER_34_121
*934 FILLER_34_133
*935 FILLER_34_139
*936 FILLER_34_141
*937 FILLER_34_153
*938 FILLER_34_165
*939 FILLER_34_17
*940 FILLER_34_177
*941 FILLER_34_189
*942 FILLER_34_195
*943 FILLER_34_197
*944 FILLER_34_209
*945 FILLER_34_221
*946 FILLER_34_233
*947 FILLER_34_245
*948 FILLER_34_25
*949 FILLER_34_251
*950 FILLER_34_253
*951 FILLER_34_265
*952 FILLER_34_277
*953 FILLER_34_289
*954 FILLER_34_29
*955 FILLER_34_297
*956 FILLER_34_3
*957 FILLER_34_41
*958 FILLER_34_53
*959 FILLER_34_65
*960 FILLER_34_77
*961 FILLER_34_83
*962 FILLER_34_85
*963 FILLER_34_9
*964 FILLER_34_97
*965 FILLER_35_105
*966 FILLER_35_111
*967 FILLER_35_113
*968 FILLER_35_125
*969 FILLER_35_137
*970 FILLER_35_149
*971 FILLER_35_15
*972 FILLER_35_161
*973 FILLER_35_167
*974 FILLER_35_169
*975 FILLER_35_181
*976 FILLER_35_193
*977 FILLER_35_205
*978 FILLER_35_217
*979 FILLER_35_223
*980 FILLER_35_225
*981 FILLER_35_237
*982 FILLER_35_249
*983 FILLER_35_261
*984 FILLER_35_27
*985 FILLER_35_273
*986 FILLER_35_279
*987 FILLER_35_281
*988 FILLER_35_293
*989 FILLER_35_3
*990 FILLER_35_39
*991 FILLER_35_51
*992 FILLER_35_55
*993 FILLER_35_57
*994 FILLER_35_69
*995 FILLER_35_81
*996 FILLER_35_93
*997 FILLER_36_109
*998 FILLER_36_121
*999 FILLER_36_133
*1000 FILLER_36_139
*1001 FILLER_36_141
*1002 FILLER_36_15
*1003 FILLER_36_153
*1004 FILLER_36_165
*1005 FILLER_36_177
*1006 FILLER_36_189
*1007 FILLER_36_195
*1008 FILLER_36_197
*1009 FILLER_36_209
*1010 FILLER_36_221
*1011 FILLER_36_233
*1012 FILLER_36_245
*1013 FILLER_36_251
*1014 FILLER_36_253
*1015 FILLER_36_265
*1016 FILLER_36_27
*1017 FILLER_36_277
*1018 FILLER_36_289
*1019 FILLER_36_29
*1020 FILLER_36_297
*1021 FILLER_36_3
*1022 FILLER_36_41
*1023 FILLER_36_53
*1024 FILLER_36_65
*1025 FILLER_36_77
*1026 FILLER_36_83
*1027 FILLER_36_85
*1028 FILLER_36_97
*1029 FILLER_37_105
*1030 FILLER_37_111
*1031 FILLER_37_113
*1032 FILLER_37_125
*1033 FILLER_37_137
*1034 FILLER_37_149
*1035 FILLER_37_15
*1036 FILLER_37_161
*1037 FILLER_37_167
*1038 FILLER_37_169
*1039 FILLER_37_181
*1040 FILLER_37_193
*1041 FILLER_37_205
*1042 FILLER_37_217
*1043 FILLER_37_223
*1044 FILLER_37_225
*1045 FILLER_37_237
*1046 FILLER_37_249
*1047 FILLER_37_261
*1048 FILLER_37_27
*1049 FILLER_37_273
*1050 FILLER_37_279
*1051 FILLER_37_281
*1052 FILLER_37_293
*1053 FILLER_37_3
*1054 FILLER_37_39
*1055 FILLER_37_51
*1056 FILLER_37_55
*1057 FILLER_37_57
*1058 FILLER_37_69
*1059 FILLER_37_81
*1060 FILLER_37_93
*1061 FILLER_38_109
*1062 FILLER_38_121
*1063 FILLER_38_133
*1064 FILLER_38_139
*1065 FILLER_38_141
*1066 FILLER_38_15
*1067 FILLER_38_153
*1068 FILLER_38_165
*1069 FILLER_38_177
*1070 FILLER_38_189
*1071 FILLER_38_195
*1072 FILLER_38_197
*1073 FILLER_38_209
*1074 FILLER_38_221
*1075 FILLER_38_233
*1076 FILLER_38_245
*1077 FILLER_38_251
*1078 FILLER_38_253
*1079 FILLER_38_265
*1080 FILLER_38_27
*1081 FILLER_38_277
*1082 FILLER_38_289
*1083 FILLER_38_29
*1084 FILLER_38_297
*1085 FILLER_38_3
*1086 FILLER_38_41
*1087 FILLER_38_53
*1088 FILLER_38_65
*1089 FILLER_38_77
*1090 FILLER_38_83
*1091 FILLER_38_85
*1092 FILLER_38_97
*1093 FILLER_39_105
*1094 FILLER_39_111
*1095 FILLER_39_113
*1096 FILLER_39_125
*1097 FILLER_39_137
*1098 FILLER_39_149
*1099 FILLER_39_15
*1100 FILLER_39_161
*1101 FILLER_39_167
*1102 FILLER_39_169
*1103 FILLER_39_181
*1104 FILLER_39_193
*1105 FILLER_39_205
*1106 FILLER_39_217
*1107 FILLER_39_223
*1108 FILLER_39_225
*1109 FILLER_39_237
*1110 FILLER_39_249
*1111 FILLER_39_261
*1112 FILLER_39_27
*1113 FILLER_39_273
*1114 FILLER_39_279
*1115 FILLER_39_281
*1116 FILLER_39_293
*1117 FILLER_39_3
*1118 FILLER_39_39
*1119 FILLER_39_51
*1120 FILLER_39_55
*1121 FILLER_39_57
*1122 FILLER_39_69
*1123 FILLER_39_81
*1124 FILLER_39_93
*1125 FILLER_3_105
*1126 FILLER_3_111
*1127 FILLER_3_113
*1128 FILLER_3_125
*1129 FILLER_3_137
*1130 FILLER_3_149
*1131 FILLER_3_15
*1132 FILLER_3_161
*1133 FILLER_3_167
*1134 FILLER_3_169
*1135 FILLER_3_181
*1136 FILLER_3_193
*1137 FILLER_3_205
*1138 FILLER_3_217
*1139 FILLER_3_223
*1140 FILLER_3_225
*1141 FILLER_3_237
*1142 FILLER_3_249
*1143 FILLER_3_261
*1144 FILLER_3_27
*1145 FILLER_3_273
*1146 FILLER_3_279
*1147 FILLER_3_281
*1148 FILLER_3_293
*1149 FILLER_3_3
*1150 FILLER_3_39
*1151 FILLER_3_51
*1152 FILLER_3_55
*1153 FILLER_3_57
*1154 FILLER_3_69
*1155 FILLER_3_81
*1156 FILLER_3_93
*1157 FILLER_40_109
*1158 FILLER_40_121
*1159 FILLER_40_133
*1160 FILLER_40_139
*1161 FILLER_40_141
*1162 FILLER_40_15
*1163 FILLER_40_153
*1164 FILLER_40_165
*1165 FILLER_40_177
*1166 FILLER_40_189
*1167 FILLER_40_195
*1168 FILLER_40_197
*1169 FILLER_40_209
*1170 FILLER_40_221
*1171 FILLER_40_233
*1172 FILLER_40_245
*1173 FILLER_40_251
*1174 FILLER_40_253
*1175 FILLER_40_265
*1176 FILLER_40_27
*1177 FILLER_40_277
*1178 FILLER_40_289
*1179 FILLER_40_29
*1180 FILLER_40_297
*1181 FILLER_40_3
*1182 FILLER_40_41
*1183 FILLER_40_53
*1184 FILLER_40_65
*1185 FILLER_40_77
*1186 FILLER_40_83
*1187 FILLER_40_85
*1188 FILLER_40_97
*1189 FILLER_41_105
*1190 FILLER_41_111
*1191 FILLER_41_113
*1192 FILLER_41_125
*1193 FILLER_41_137
*1194 FILLER_41_149
*1195 FILLER_41_15
*1196 FILLER_41_161
*1197 FILLER_41_167
*1198 FILLER_41_169
*1199 FILLER_41_181
*1200 FILLER_41_193
*1201 FILLER_41_205
*1202 FILLER_41_217
*1203 FILLER_41_223
*1204 FILLER_41_225
*1205 FILLER_41_237
*1206 FILLER_41_249
*1207 FILLER_41_261
*1208 FILLER_41_27
*1209 FILLER_41_273
*1210 FILLER_41_279
*1211 FILLER_41_281
*1212 FILLER_41_293
*1213 FILLER_41_3
*1214 FILLER_41_39
*1215 FILLER_41_51
*1216 FILLER_41_55
*1217 FILLER_41_57
*1218 FILLER_41_69
*1219 FILLER_41_81
*1220 FILLER_41_93
*1221 FILLER_42_109
*1222 FILLER_42_121
*1223 FILLER_42_133
*1224 FILLER_42_139
*1225 FILLER_42_141
*1226 FILLER_42_15
*1227 FILLER_42_153
*1228 FILLER_42_165
*1229 FILLER_42_177
*1230 FILLER_42_189
*1231 FILLER_42_195
*1232 FILLER_42_197
*1233 FILLER_42_209
*1234 FILLER_42_221
*1235 FILLER_42_233
*1236 FILLER_42_245
*1237 FILLER_42_251
*1238 FILLER_42_253
*1239 FILLER_42_265
*1240 FILLER_42_27
*1241 FILLER_42_277
*1242 FILLER_42_289
*1243 FILLER_42_29
*1244 FILLER_42_297
*1245 FILLER_42_3
*1246 FILLER_42_41
*1247 FILLER_42_53
*1248 FILLER_42_65
*1249 FILLER_42_77
*1250 FILLER_42_83
*1251 FILLER_42_85
*1252 FILLER_42_97
*1253 FILLER_43_105
*1254 FILLER_43_111
*1255 FILLER_43_113
*1256 FILLER_43_125
*1257 FILLER_43_137
*1258 FILLER_43_149
*1259 FILLER_43_15
*1260 FILLER_43_161
*1261 FILLER_43_167
*1262 FILLER_43_169
*1263 FILLER_43_181
*1264 FILLER_43_193
*1265 FILLER_43_205
*1266 FILLER_43_217
*1267 FILLER_43_223
*1268 FILLER_43_225
*1269 FILLER_43_237
*1270 FILLER_43_249
*1271 FILLER_43_261
*1272 FILLER_43_27
*1273 FILLER_43_273
*1274 FILLER_43_279
*1275 FILLER_43_281
*1276 FILLER_43_293
*1277 FILLER_43_3
*1278 FILLER_43_39
*1279 FILLER_43_51
*1280 FILLER_43_55
*1281 FILLER_43_57
*1282 FILLER_43_69
*1283 FILLER_43_81
*1284 FILLER_43_93
*1285 FILLER_44_109
*1286 FILLER_44_121
*1287 FILLER_44_133
*1288 FILLER_44_139
*1289 FILLER_44_141
*1290 FILLER_44_15
*1291 FILLER_44_153
*1292 FILLER_44_165
*1293 FILLER_44_177
*1294 FILLER_44_189
*1295 FILLER_44_195
*1296 FILLER_44_197
*1297 FILLER_44_209
*1298 FILLER_44_221
*1299 FILLER_44_233
*1300 FILLER_44_245
*1301 FILLER_44_251
*1302 FILLER_44_253
*1303 FILLER_44_265
*1304 FILLER_44_27
*1305 FILLER_44_277
*1306 FILLER_44_289
*1307 FILLER_44_29
*1308 FILLER_44_297
*1309 FILLER_44_3
*1310 FILLER_44_41
*1311 FILLER_44_53
*1312 FILLER_44_65
*1313 FILLER_44_77
*1314 FILLER_44_83
*1315 FILLER_44_85
*1316 FILLER_44_97
*1317 FILLER_45_105
*1318 FILLER_45_111
*1319 FILLER_45_113
*1320 FILLER_45_12
*1321 FILLER_45_125
*1322 FILLER_45_137
*1323 FILLER_45_149
*1324 FILLER_45_161
*1325 FILLER_45_167
*1326 FILLER_45_169
*1327 FILLER_45_181
*1328 FILLER_45_193
*1329 FILLER_45_205
*1330 FILLER_45_21
*1331 FILLER_45_217
*1332 FILLER_45_223
*1333 FILLER_45_225
*1334 FILLER_45_237
*1335 FILLER_45_249
*1336 FILLER_45_261
*1337 FILLER_45_273
*1338 FILLER_45_279
*1339 FILLER_45_281
*1340 FILLER_45_293
*1341 FILLER_45_3
*1342 FILLER_45_33
*1343 FILLER_45_45
*1344 FILLER_45_53
*1345 FILLER_45_57
*1346 FILLER_45_69
*1347 FILLER_45_7
*1348 FILLER_45_81
*1349 FILLER_45_93
*1350 FILLER_46_109
*1351 FILLER_46_11
*1352 FILLER_46_121
*1353 FILLER_46_133
*1354 FILLER_46_139
*1355 FILLER_46_141
*1356 FILLER_46_15
*1357 FILLER_46_153
*1358 FILLER_46_165
*1359 FILLER_46_177
*1360 FILLER_46_189
*1361 FILLER_46_195
*1362 FILLER_46_197
*1363 FILLER_46_209
*1364 FILLER_46_221
*1365 FILLER_46_233
*1366 FILLER_46_245
*1367 FILLER_46_251
*1368 FILLER_46_253
*1369 FILLER_46_265
*1370 FILLER_46_27
*1371 FILLER_46_277
*1372 FILLER_46_289
*1373 FILLER_46_29
*1374 FILLER_46_297
*1375 FILLER_46_3
*1376 FILLER_46_41
*1377 FILLER_46_53
*1378 FILLER_46_65
*1379 FILLER_46_77
*1380 FILLER_46_83
*1381 FILLER_46_85
*1382 FILLER_46_97
*1383 FILLER_47_105
*1384 FILLER_47_111
*1385 FILLER_47_113
*1386 FILLER_47_125
*1387 FILLER_47_137
*1388 FILLER_47_149
*1389 FILLER_47_15
*1390 FILLER_47_161
*1391 FILLER_47_167
*1392 FILLER_47_169
*1393 FILLER_47_181
*1394 FILLER_47_193
*1395 FILLER_47_205
*1396 FILLER_47_217
*1397 FILLER_47_223
*1398 FILLER_47_225
*1399 FILLER_47_237
*1400 FILLER_47_249
*1401 FILLER_47_261
*1402 FILLER_47_27
*1403 FILLER_47_273
*1404 FILLER_47_279
*1405 FILLER_47_281
*1406 FILLER_47_293
*1407 FILLER_47_3
*1408 FILLER_47_39
*1409 FILLER_47_51
*1410 FILLER_47_55
*1411 FILLER_47_57
*1412 FILLER_47_69
*1413 FILLER_47_81
*1414 FILLER_47_93
*1415 FILLER_48_109
*1416 FILLER_48_11
*1417 FILLER_48_121
*1418 FILLER_48_133
*1419 FILLER_48_139
*1420 FILLER_48_141
*1421 FILLER_48_153
*1422 FILLER_48_165
*1423 FILLER_48_177
*1424 FILLER_48_189
*1425 FILLER_48_195
*1426 FILLER_48_197
*1427 FILLER_48_209
*1428 FILLER_48_221
*1429 FILLER_48_23
*1430 FILLER_48_233
*1431 FILLER_48_245
*1432 FILLER_48_251
*1433 FILLER_48_253
*1434 FILLER_48_265
*1435 FILLER_48_27
*1436 FILLER_48_277
*1437 FILLER_48_289
*1438 FILLER_48_29
*1439 FILLER_48_297
*1440 FILLER_48_3
*1441 FILLER_48_41
*1442 FILLER_48_53
*1443 FILLER_48_65
*1444 FILLER_48_77
*1445 FILLER_48_83
*1446 FILLER_48_85
*1447 FILLER_48_97
*1448 FILLER_49_105
*1449 FILLER_49_111
*1450 FILLER_49_113
*1451 FILLER_49_125
*1452 FILLER_49_137
*1453 FILLER_49_149
*1454 FILLER_49_15
*1455 FILLER_49_161
*1456 FILLER_49_167
*1457 FILLER_49_169
*1458 FILLER_49_181
*1459 FILLER_49_193
*1460 FILLER_49_205
*1461 FILLER_49_217
*1462 FILLER_49_223
*1463 FILLER_49_225
*1464 FILLER_49_237
*1465 FILLER_49_249
*1466 FILLER_49_261
*1467 FILLER_49_27
*1468 FILLER_49_273
*1469 FILLER_49_279
*1470 FILLER_49_281
*1471 FILLER_49_293
*1472 FILLER_49_3
*1473 FILLER_49_39
*1474 FILLER_49_51
*1475 FILLER_49_55
*1476 FILLER_49_57
*1477 FILLER_49_69
*1478 FILLER_49_81
*1479 FILLER_49_93
*1480 FILLER_4_109
*1481 FILLER_4_121
*1482 FILLER_4_133
*1483 FILLER_4_139
*1484 FILLER_4_141
*1485 FILLER_4_15
*1486 FILLER_4_153
*1487 FILLER_4_165
*1488 FILLER_4_177
*1489 FILLER_4_189
*1490 FILLER_4_195
*1491 FILLER_4_197
*1492 FILLER_4_209
*1493 FILLER_4_221
*1494 FILLER_4_233
*1495 FILLER_4_245
*1496 FILLER_4_251
*1497 FILLER_4_253
*1498 FILLER_4_265
*1499 FILLER_4_27
*1500 FILLER_4_277
*1501 FILLER_4_289
*1502 FILLER_4_29
*1503 FILLER_4_297
*1504 FILLER_4_3
*1505 FILLER_4_41
*1506 FILLER_4_53
*1507 FILLER_4_65
*1508 FILLER_4_77
*1509 FILLER_4_83
*1510 FILLER_4_85
*1511 FILLER_4_97
*1512 FILLER_50_109
*1513 FILLER_50_121
*1514 FILLER_50_133
*1515 FILLER_50_139
*1516 FILLER_50_141
*1517 FILLER_50_15
*1518 FILLER_50_153
*1519 FILLER_50_165
*1520 FILLER_50_177
*1521 FILLER_50_189
*1522 FILLER_50_195
*1523 FILLER_50_197
*1524 FILLER_50_209
*1525 FILLER_50_221
*1526 FILLER_50_233
*1527 FILLER_50_245
*1528 FILLER_50_251
*1529 FILLER_50_253
*1530 FILLER_50_265
*1531 FILLER_50_27
*1532 FILLER_50_277
*1533 FILLER_50_289
*1534 FILLER_50_29
*1535 FILLER_50_297
*1536 FILLER_50_3
*1537 FILLER_50_41
*1538 FILLER_50_53
*1539 FILLER_50_65
*1540 FILLER_50_77
*1541 FILLER_50_83
*1542 FILLER_50_85
*1543 FILLER_50_97
*1544 FILLER_51_105
*1545 FILLER_51_111
*1546 FILLER_51_113
*1547 FILLER_51_125
*1548 FILLER_51_137
*1549 FILLER_51_149
*1550 FILLER_51_15
*1551 FILLER_51_161
*1552 FILLER_51_167
*1553 FILLER_51_169
*1554 FILLER_51_181
*1555 FILLER_51_193
*1556 FILLER_51_205
*1557 FILLER_51_217
*1558 FILLER_51_223
*1559 FILLER_51_225
*1560 FILLER_51_237
*1561 FILLER_51_249
*1562 FILLER_51_261
*1563 FILLER_51_27
*1564 FILLER_51_273
*1565 FILLER_51_279
*1566 FILLER_51_281
*1567 FILLER_51_293
*1568 FILLER_51_3
*1569 FILLER_51_39
*1570 FILLER_51_51
*1571 FILLER_51_55
*1572 FILLER_51_57
*1573 FILLER_51_69
*1574 FILLER_51_81
*1575 FILLER_51_93
*1576 FILLER_52_109
*1577 FILLER_52_121
*1578 FILLER_52_133
*1579 FILLER_52_139
*1580 FILLER_52_141
*1581 FILLER_52_15
*1582 FILLER_52_153
*1583 FILLER_52_165
*1584 FILLER_52_177
*1585 FILLER_52_189
*1586 FILLER_52_195
*1587 FILLER_52_197
*1588 FILLER_52_209
*1589 FILLER_52_221
*1590 FILLER_52_233
*1591 FILLER_52_245
*1592 FILLER_52_251