*SPEF "ieee 1481-1999"
*DESIGN "user_module_362833471952037889"
*DATE "11:11:11 Fri 11 11, 1111"
*VENDOR "OpenRCX"
*PROGRAM "Parallel Extraction"
*VERSION "1.0"
*DESIGN_FLOW "NAME_SCOPE LOCAL" "PIN_CAP NONE"
*DIVIDER /
*DELIMITER :
*BUS_DELIMITER []
*T_UNIT 1 NS
*C_UNIT 1 PF
*R_UNIT 1 OHM
*L_UNIT 1 HENRY

*NAME_MAP
*1 io_in[0]
*2 io_in[1]
*3 io_in[2]
*4 io_in[3]
*5 io_in[4]
*6 io_in[5]
*7 io_in[6]
*8 io_in[7]
*9 io_out[0]
*10 net8
*11 net9
*12 net10
*13 net11
*14 net12
*15 net13
*16 net14
*19 _00_
*20 _01_
*21 mux5\.out
*22 net1
*23 net2
*24 net3
*25 net4
*26 net5
*27 net6
*28 net7
*29 FILLER_0_109
*30 FILLER_0_113
*31 FILLER_0_125
*32 FILLER_0_137
*33 FILLER_0_141
*34 FILLER_0_15
*35 FILLER_0_153
*36 FILLER_0_165
*37 FILLER_0_169
*38 FILLER_0_181
*39 FILLER_0_193
*40 FILLER_0_197
*41 FILLER_0_209
*42 FILLER_0_221
*43 FILLER_0_225
*44 FILLER_0_237
*45 FILLER_0_249
*46 FILLER_0_253
*47 FILLER_0_265
*48 FILLER_0_27
*49 FILLER_0_277
*50 FILLER_0_281
*51 FILLER_0_29
*52 FILLER_0_293
*53 FILLER_0_3
*54 FILLER_0_41
*55 FILLER_0_53
*56 FILLER_0_57
*57 FILLER_0_69
*58 FILLER_0_81
*59 FILLER_0_85
*60 FILLER_0_97
*61 FILLER_10_109
*62 FILLER_10_121
*63 FILLER_10_133
*64 FILLER_10_139
*65 FILLER_10_141
*66 FILLER_10_15
*67 FILLER_10_153
*68 FILLER_10_165
*69 FILLER_10_177
*70 FILLER_10_189
*71 FILLER_10_195
*72 FILLER_10_197
*73 FILLER_10_209
*74 FILLER_10_221
*75 FILLER_10_233
*76 FILLER_10_245
*77 FILLER_10_251
*78 FILLER_10_253
*79 FILLER_10_265
*80 FILLER_10_27
*81 FILLER_10_277
*82 FILLER_10_289
*83 FILLER_10_29
*84 FILLER_10_297
*85 FILLER_10_3
*86 FILLER_10_41
*87 FILLER_10_53
*88 FILLER_10_65
*89 FILLER_10_77
*90 FILLER_10_83
*91 FILLER_10_85
*92 FILLER_10_97
*93 FILLER_11_105
*94 FILLER_11_111
*95 FILLER_11_113
*96 FILLER_11_125
*97 FILLER_11_137
*98 FILLER_11_149
*99 FILLER_11_15
*100 FILLER_11_161
*101 FILLER_11_167
*102 FILLER_11_169
*103 FILLER_11_181
*104 FILLER_11_193
*105 FILLER_11_205
*106 FILLER_11_217
*107 FILLER_11_223
*108 FILLER_11_225
*109 FILLER_11_237
*110 FILLER_11_249
*111 FILLER_11_261
*112 FILLER_11_27
*113 FILLER_11_273
*114 FILLER_11_279
*115 FILLER_11_281
*116 FILLER_11_293
*117 FILLER_11_3
*118 FILLER_11_39
*119 FILLER_11_51
*120 FILLER_11_55
*121 FILLER_11_57
*122 FILLER_11_69
*123 FILLER_11_81
*124 FILLER_11_93
*125 FILLER_12_109
*126 FILLER_12_121
*127 FILLER_12_133
*128 FILLER_12_139
*129 FILLER_12_141
*130 FILLER_12_153
*131 FILLER_12_165
*132 FILLER_12_177
*133 FILLER_12_189
*134 FILLER_12_195
*135 FILLER_12_197
*136 FILLER_12_20
*137 FILLER_12_209
*138 FILLER_12_221
*139 FILLER_12_233
*140 FILLER_12_245
*141 FILLER_12_251
*142 FILLER_12_253
*143 FILLER_12_265
*144 FILLER_12_277
*145 FILLER_12_289
*146 FILLER_12_29
*147 FILLER_12_297
*148 FILLER_12_3
*149 FILLER_12_41
*150 FILLER_12_53
*151 FILLER_12_65
*152 FILLER_12_77
*153 FILLER_12_8
*154 FILLER_12_83
*155 FILLER_12_85
*156 FILLER_12_97
*157 FILLER_13_105
*158 FILLER_13_111
*159 FILLER_13_113
*160 FILLER_13_125
*161 FILLER_13_137
*162 FILLER_13_149
*163 FILLER_13_15
*164 FILLER_13_161
*165 FILLER_13_167
*166 FILLER_13_169
*167 FILLER_13_181
*168 FILLER_13_193
*169 FILLER_13_205
*170 FILLER_13_217
*171 FILLER_13_223
*172 FILLER_13_225
*173 FILLER_13_237
*174 FILLER_13_249
*175 FILLER_13_261
*176 FILLER_13_27
*177 FILLER_13_273
*178 FILLER_13_279
*179 FILLER_13_281
*180 FILLER_13_293
*181 FILLER_13_3
*182 FILLER_13_39
*183 FILLER_13_51
*184 FILLER_13_55
*185 FILLER_13_57
*186 FILLER_13_69
*187 FILLER_13_81
*188 FILLER_13_93
*189 FILLER_14_109
*190 FILLER_14_121
*191 FILLER_14_133
*192 FILLER_14_139
*193 FILLER_14_141
*194 FILLER_14_15
*195 FILLER_14_153
*196 FILLER_14_165
*197 FILLER_14_177
*198 FILLER_14_189
*199 FILLER_14_195
*200 FILLER_14_197
*201 FILLER_14_209
*202 FILLER_14_221
*203 FILLER_14_233
*204 FILLER_14_245
*205 FILLER_14_251
*206 FILLER_14_253
*207 FILLER_14_265
*208 FILLER_14_27
*209 FILLER_14_277
*210 FILLER_14_289
*211 FILLER_14_29
*212 FILLER_14_297
*213 FILLER_14_3
*214 FILLER_14_41
*215 FILLER_14_53
*216 FILLER_14_65
*217 FILLER_14_77
*218 FILLER_14_83
*219 FILLER_14_85
*220 FILLER_14_97
*221 FILLER_15_105
*222 FILLER_15_111
*223 FILLER_15_113
*224 FILLER_15_125
*225 FILLER_15_137
*226 FILLER_15_149
*227 FILLER_15_161
*228 FILLER_15_167
*229 FILLER_15_169
*230 FILLER_15_181
*231 FILLER_15_193
*232 FILLER_15_205
*233 FILLER_15_217
*234 FILLER_15_223
*235 FILLER_15_225
*236 FILLER_15_23
*237 FILLER_15_237
*238 FILLER_15_249
*239 FILLER_15_261
*240 FILLER_15_273
*241 FILLER_15_279
*242 FILLER_15_281
*243 FILLER_15_293
*244 FILLER_15_3
*245 FILLER_15_35
*246 FILLER_15_47
*247 FILLER_15_55
*248 FILLER_15_57
*249 FILLER_15_69
*250 FILLER_15_81
*251 FILLER_15_93
*252 FILLER_16_109
*253 FILLER_16_121
*254 FILLER_16_133
*255 FILLER_16_139
*256 FILLER_16_141
*257 FILLER_16_153
*258 FILLER_16_165
*259 FILLER_16_177
*260 FILLER_16_189
*261 FILLER_16_195
*262 FILLER_16_197
*263 FILLER_16_20
*264 FILLER_16_209
*265 FILLER_16_221
*266 FILLER_16_233
*267 FILLER_16_245
*268 FILLER_16_251
*269 FILLER_16_253
*270 FILLER_16_265
*271 FILLER_16_277
*272 FILLER_16_289
*273 FILLER_16_29
*274 FILLER_16_297
*275 FILLER_16_3
*276 FILLER_16_41
*277 FILLER_16_53
*278 FILLER_16_65
*279 FILLER_16_77
*280 FILLER_16_8
*281 FILLER_16_83
*282 FILLER_16_85
*283 FILLER_16_97
*284 FILLER_17_105
*285 FILLER_17_111
*286 FILLER_17_113
*287 FILLER_17_125
*288 FILLER_17_137
*289 FILLER_17_149
*290 FILLER_17_15
*291 FILLER_17_161
*292 FILLER_17_167
*293 FILLER_17_169
*294 FILLER_17_181
*295 FILLER_17_193
*296 FILLER_17_205
*297 FILLER_17_217
*298 FILLER_17_223
*299 FILLER_17_225
*300 FILLER_17_237
*301 FILLER_17_249
*302 FILLER_17_261
*303 FILLER_17_27
*304 FILLER_17_273
*305 FILLER_17_279
*306 FILLER_17_281
*307 FILLER_17_293
*308 FILLER_17_3
*309 FILLER_17_39
*310 FILLER_17_51
*311 FILLER_17_55
*312 FILLER_17_57
*313 FILLER_17_69
*314 FILLER_17_81
*315 FILLER_17_93
*316 FILLER_18_109
*317 FILLER_18_121
*318 FILLER_18_133
*319 FILLER_18_139
*320 FILLER_18_141
*321 FILLER_18_15
*322 FILLER_18_153
*323 FILLER_18_165
*324 FILLER_18_177
*325 FILLER_18_189
*326 FILLER_18_195
*327 FILLER_18_197
*328 FILLER_18_209
*329 FILLER_18_221
*330 FILLER_18_233
*331 FILLER_18_245
*332 FILLER_18_251
*333 FILLER_18_253
*334 FILLER_18_265
*335 FILLER_18_27
*336 FILLER_18_277
*337 FILLER_18_289
*338 FILLER_18_29
*339 FILLER_18_297
*340 FILLER_18_3
*341 FILLER_18_41
*342 FILLER_18_53
*343 FILLER_18_65
*344 FILLER_18_77
*345 FILLER_18_83
*346 FILLER_18_85
*347 FILLER_18_97
*348 FILLER_19_105
*349 FILLER_19_111
*350 FILLER_19_113
*351 FILLER_19_125
*352 FILLER_19_137
*353 FILLER_19_149
*354 FILLER_19_15
*355 FILLER_19_161
*356 FILLER_19_167
*357 FILLER_19_169
*358 FILLER_19_181
*359 FILLER_19_193
*360 FILLER_19_205
*361 FILLER_19_217
*362 FILLER_19_223
*363 FILLER_19_225
*364 FILLER_19_237
*365 FILLER_19_249
*366 FILLER_19_261
*367 FILLER_19_27
*368 FILLER_19_273
*369 FILLER_19_279
*370 FILLER_19_281
*371 FILLER_19_293
*372 FILLER_19_3
*373 FILLER_19_39
*374 FILLER_19_51
*375 FILLER_19_55
*376 FILLER_19_57
*377 FILLER_19_69
*378 FILLER_19_81
*379 FILLER_19_93
*380 FILLER_1_105
*381 FILLER_1_111
*382 FILLER_1_113
*383 FILLER_1_125
*384 FILLER_1_137
*385 FILLER_1_149
*386 FILLER_1_15
*387 FILLER_1_161
*388 FILLER_1_167
*389 FILLER_1_169
*390 FILLER_1_181
*391 FILLER_1_193
*392 FILLER_1_205
*393 FILLER_1_217
*394 FILLER_1_223
*395 FILLER_1_225
*396 FILLER_1_237
*397 FILLER_1_249
*398 FILLER_1_261
*399 FILLER_1_27
*400 FILLER_1_273
*401 FILLER_1_279
*402 FILLER_1_281
*403 FILLER_1_293
*404 FILLER_1_3
*405 FILLER_1_39
*406 FILLER_1_51
*407 FILLER_1_55
*408 FILLER_1_57
*409 FILLER_1_69
*410 FILLER_1_81
*411 FILLER_1_93
*412 FILLER_20_109
*413 FILLER_20_121
*414 FILLER_20_133
*415 FILLER_20_139
*416 FILLER_20_141
*417 FILLER_20_153
*418 FILLER_20_165
*419 FILLER_20_177
*420 FILLER_20_189
*421 FILLER_20_195
*422 FILLER_20_197
*423 FILLER_20_20
*424 FILLER_20_209
*425 FILLER_20_221
*426 FILLER_20_233
*427 FILLER_20_245
*428 FILLER_20_251
*429 FILLER_20_253
*430 FILLER_20_265
*431 FILLER_20_277
*432 FILLER_20_289
*433 FILLER_20_29
*434 FILLER_20_297
*435 FILLER_20_3
*436 FILLER_20_41
*437 FILLER_20_53
*438 FILLER_20_65
*439 FILLER_20_77
*440 FILLER_20_8
*441 FILLER_20_83
*442 FILLER_20_85
*443 FILLER_20_97
*444 FILLER_21_105
*445 FILLER_21_111
*446 FILLER_21_113
*447 FILLER_21_125
*448 FILLER_21_137
*449 FILLER_21_149
*450 FILLER_21_15
*451 FILLER_21_161
*452 FILLER_21_167
*453 FILLER_21_169
*454 FILLER_21_181
*455 FILLER_21_193
*456 FILLER_21_205
*457 FILLER_21_217
*458 FILLER_21_223
*459 FILLER_21_225
*460 FILLER_21_237
*461 FILLER_21_249
*462 FILLER_21_261
*463 FILLER_21_27
*464 FILLER_21_273
*465 FILLER_21_279
*466 FILLER_21_281
*467 FILLER_21_293
*468 FILLER_21_3
*469 FILLER_21_39
*470 FILLER_21_51
*471 FILLER_21_55
*472 FILLER_21_57
*473 FILLER_21_69
*474 FILLER_21_81
*475 FILLER_21_93
*476 FILLER_22_109
*477 FILLER_22_121
*478 FILLER_22_133
*479 FILLER_22_139
*480 FILLER_22_14
*481 FILLER_22_141
*482 FILLER_22_153
*483 FILLER_22_165
*484 FILLER_22_177
*485 FILLER_22_189
*486 FILLER_22_195
*487 FILLER_22_197
*488 FILLER_22_209
*489 FILLER_22_221
*490 FILLER_22_233
*491 FILLER_22_245
*492 FILLER_22_251
*493 FILLER_22_253
*494 FILLER_22_26
*495 FILLER_22_265
*496 FILLER_22_277
*497 FILLER_22_289
*498 FILLER_22_29
*499 FILLER_22_297
*500 FILLER_22_3
*501 FILLER_22_41
*502 FILLER_22_53
*503 FILLER_22_65
*504 FILLER_22_77
*505 FILLER_22_83
*506 FILLER_22_85
*507 FILLER_22_97
*508 FILLER_23_105
*509 FILLER_23_111
*510 FILLER_23_113
*511 FILLER_23_125
*512 FILLER_23_137
*513 FILLER_23_149
*514 FILLER_23_161
*515 FILLER_23_167
*516 FILLER_23_169
*517 FILLER_23_181
*518 FILLER_23_193
*519 FILLER_23_20
*520 FILLER_23_205
*521 FILLER_23_217
*522 FILLER_23_223
*523 FILLER_23_225
*524 FILLER_23_237
*525 FILLER_23_249
*526 FILLER_23_261
*527 FILLER_23_273
*528 FILLER_23_279
*529 FILLER_23_281
*530 FILLER_23_293
*531 FILLER_23_3
*532 FILLER_23_32
*533 FILLER_23_44
*534 FILLER_23_57
*535 FILLER_23_69
*536 FILLER_23_8
*537 FILLER_23_81
*538 FILLER_23_93
*539 FILLER_24_109
*540 FILLER_24_121
*541 FILLER_24_133
*542 FILLER_24_139
*543 FILLER_24_141
*544 FILLER_24_153
*545 FILLER_24_165
*546 FILLER_24_177
*547 FILLER_24_189
*548 FILLER_24_195
*549 FILLER_24_197
*550 FILLER_24_20
*551 FILLER_24_209
*552 FILLER_24_221
*553 FILLER_24_233
*554 FILLER_24_245
*555 FILLER_24_251
*556 FILLER_24_253
*557 FILLER_24_265
*558 FILLER_24_277
*559 FILLER_24_289
*560 FILLER_24_29
*561 FILLER_24_297
*562 FILLER_24_3
*563 FILLER_24_41
*564 FILLER_24_53
*565 FILLER_24_65
*566 FILLER_24_77
*567 FILLER_24_8
*568 FILLER_24_83
*569 FILLER_24_85
*570 FILLER_24_97
*571 FILLER_25_105
*572 FILLER_25_111
*573 FILLER_25_113
*574 FILLER_25_125
*575 FILLER_25_137
*576 FILLER_25_149
*577 FILLER_25_161
*578 FILLER_25_167
*579 FILLER_25_169
*580 FILLER_25_181
*581 FILLER_25_193
*582 FILLER_25_205
*583 FILLER_25_21
*584 FILLER_25_217
*585 FILLER_25_223
*586 FILLER_25_225
*587 FILLER_25_237
*588 FILLER_25_249
*589 FILLER_25_261
*590 FILLER_25_273
*591 FILLER_25_279
*592 FILLER_25_281
*593 FILLER_25_293
*594 FILLER_25_3
*595 FILLER_25_33
*596 FILLER_25_45
*597 FILLER_25_53
*598 FILLER_25_57
*599 FILLER_25_69
*600 FILLER_25_81
*601 FILLER_25_9
*602 FILLER_25_93
*603 FILLER_26_109
*604 FILLER_26_121
*605 FILLER_26_133
*606 FILLER_26_139
*607 FILLER_26_141
*608 FILLER_26_15
*609 FILLER_26_153
*610 FILLER_26_165
*611 FILLER_26_177
*612 FILLER_26_189
*613 FILLER_26_195
*614 FILLER_26_197
*615 FILLER_26_209
*616 FILLER_26_221
*617 FILLER_26_233
*618 FILLER_26_245
*619 FILLER_26_251
*620 FILLER_26_253
*621 FILLER_26_265
*622 FILLER_26_27
*623 FILLER_26_277
*624 FILLER_26_289
*625 FILLER_26_29
*626 FILLER_26_297
*627 FILLER_26_3
*628 FILLER_26_41
*629 FILLER_26_53
*630 FILLER_26_65
*631 FILLER_26_77
*632 FILLER_26_83
*633 FILLER_26_85
*634 FILLER_26_97
*635 FILLER_27_105
*636 FILLER_27_111
*637 FILLER_27_113
*638 FILLER_27_125
*639 FILLER_27_137
*640 FILLER_27_149
*641 FILLER_27_161
*642 FILLER_27_167
*643 FILLER_27_169
*644 FILLER_27_181
*645 FILLER_27_193
*646 FILLER_27_20
*647 FILLER_27_205
*648 FILLER_27_217
*649 FILLER_27_223
*650 FILLER_27_225
*651 FILLER_27_237
*652 FILLER_27_249
*653 FILLER_27_261
*654 FILLER_27_273
*655 FILLER_27_279
*656 FILLER_27_281
*657 FILLER_27_293
*658 FILLER_27_3
*659 FILLER_27_32
*660 FILLER_27_44
*661 FILLER_27_57
*662 FILLER_27_69
*663 FILLER_27_8
*664 FILLER_27_81
*665 FILLER_27_93
*666 FILLER_28_109
*667 FILLER_28_121
*668 FILLER_28_133
*669 FILLER_28_139
*670 FILLER_28_141
*671 FILLER_28_15
*672 FILLER_28_153
*673 FILLER_28_165
*674 FILLER_28_177
*675 FILLER_28_189
*676 FILLER_28_195
*677 FILLER_28_197
*678 FILLER_28_209
*679 FILLER_28_221
*680 FILLER_28_233
*681 FILLER_28_245
*682 FILLER_28_251
*683 FILLER_28_253
*684 FILLER_28_265
*685 FILLER_28_27
*686 FILLER_28_277
*687 FILLER_28_289
*688 FILLER_28_29
*689 FILLER_28_297
*690 FILLER_28_3
*691 FILLER_28_41
*692 FILLER_28_53
*693 FILLER_28_65
*694 FILLER_28_77
*695 FILLER_28_83
*696 FILLER_28_85
*697 FILLER_28_97
*698 FILLER_29_105
*699 FILLER_29_111
*700 FILLER_29_113
*701 FILLER_29_125
*702 FILLER_29_137
*703 FILLER_29_149
*704 FILLER_29_15
*705 FILLER_29_161
*706 FILLER_29_167
*707 FILLER_29_169
*708 FILLER_29_181
*709 FILLER_29_193
*710 FILLER_29_205
*711 FILLER_29_217
*712 FILLER_29_223
*713 FILLER_29_225
*714 FILLER_29_237
*715 FILLER_29_249
*716 FILLER_29_261
*717 FILLER_29_27
*718 FILLER_29_273
*719 FILLER_29_279
*720 FILLER_29_281
*721 FILLER_29_293
*722 FILLER_29_3
*723 FILLER_29_39
*724 FILLER_29_51
*725 FILLER_29_55
*726 FILLER_29_57
*727 FILLER_29_69
*728 FILLER_29_81
*729 FILLER_29_93
*730 FILLER_2_109
*731 FILLER_2_121
*732 FILLER_2_133
*733 FILLER_2_139
*734 FILLER_2_141
*735 FILLER_2_15
*736 FILLER_2_153
*737 FILLER_2_165
*738 FILLER_2_177
*739 FILLER_2_189
*740 FILLER_2_195
*741 FILLER_2_197
*742 FILLER_2_209
*743 FILLER_2_221
*744 FILLER_2_233
*745 FILLER_2_245
*746 FILLER_2_251
*747 FILLER_2_253
*748 FILLER_2_265
*749 FILLER_2_27
*750 FILLER_2_277
*751 FILLER_2_289
*752 FILLER_2_29
*753 FILLER_2_297
*754 FILLER_2_3
*755 FILLER_2_41
*756 FILLER_2_53
*757 FILLER_2_65
*758 FILLER_2_77
*759 FILLER_2_83
*760 FILLER_2_85
*761 FILLER_2_97
*762 FILLER_30_109
*763 FILLER_30_121
*764 FILLER_30_133
*765 FILLER_30_139
*766 FILLER_30_141
*767 FILLER_30_15
*768 FILLER_30_153
*769 FILLER_30_165
*770 FILLER_30_177
*771 FILLER_30_189
*772 FILLER_30_195
*773 FILLER_30_197
*774 FILLER_30_209
*775 FILLER_30_221
*776 FILLER_30_233
*777 FILLER_30_245
*778 FILLER_30_251
*779 FILLER_30_253
*780 FILLER_30_265
*781 FILLER_30_27
*782 FILLER_30_277
*783 FILLER_30_289
*784 FILLER_30_29
*785 FILLER_30_297
*786 FILLER_30_3
*787 FILLER_30_41
*788 FILLER_30_53
*789 FILLER_30_65
*790 FILLER_30_77
*791 FILLER_30_83
*792 FILLER_30_85
*793 FILLER_30_97
*794 FILLER_31_105
*795 FILLER_31_111
*796 FILLER_31_113
*797 FILLER_31_125
*798 FILLER_31_137
*799 FILLER_31_149
*800 FILLER_31_15
*801 FILLER_31_161
*802 FILLER_31_167
*803 FILLER_31_169
*804 FILLER_31_181
*805 FILLER_31_193
*806 FILLER_31_205
*807 FILLER_31_217
*808 FILLER_31_223
*809 FILLER_31_225
*810 FILLER_31_237
*811 FILLER_31_249
*812 FILLER_31_261
*813 FILLER_31_27
*814 FILLER_31_273
*815 FILLER_31_279
*816 FILLER_31_281
*817 FILLER_31_293
*818 FILLER_31_3
*819 FILLER_31_39
*820 FILLER_31_51
*821 FILLER_31_55
*822 FILLER_31_57
*823 FILLER_31_69
*824 FILLER_31_81
*825 FILLER_31_93
*826 FILLER_32_109
*827 FILLER_32_121
*828 FILLER_32_133
*829 FILLER_32_139
*830 FILLER_32_141
*831 FILLER_32_15
*832 FILLER_32_153
*833 FILLER_32_165
*834 FILLER_32_177
*835 FILLER_32_189
*836 FILLER_32_195
*837 FILLER_32_197
*838 FILLER_32_209
*839 FILLER_32_221
*840 FILLER_32_233
*841 FILLER_32_245
*842 FILLER_32_251
*843 FILLER_32_253
*844 FILLER_32_265
*845 FILLER_32_27
*846 FILLER_32_277
*847 FILLER_32_289
*848 FILLER_32_29
*849 FILLER_32_297
*850 FILLER_32_3
*851 FILLER_32_41
*852 FILLER_32_53
*853 FILLER_32_65
*854 FILLER_32_77
*855 FILLER_32_83
*856 FILLER_32_85
*857 FILLER_32_97
*858 FILLER_33_105
*859 FILLER_33_111
*860 FILLER_33_113
*861 FILLER_33_125
*862 FILLER_33_137
*863 FILLER_33_149
*864 FILLER_33_15
*865 FILLER_33_161
*866 FILLER_33_167
*867 FILLER_33_169
*868 FILLER_33_181
*869 FILLER_33_193
*870 FILLER_33_205
*871 FILLER_33_217
*872 FILLER_33_223
*873 FILLER_33_225
*874 FILLER_33_237
*875 FILLER_33_249
*876 FILLER_33_261
*877 FILLER_33_27
*878 FILLER_33_273
*879 FILLER_33_279
*880 FILLER_33_281
*881 FILLER_33_293
*882 FILLER_33_3
*883 FILLER_33_39
*884 FILLER_33_51
*885 FILLER_33_55
*886 FILLER_33_57
*887 FILLER_33_69
*888 FILLER_33_81
*889 FILLER_33_93
*890 FILLER_34_109
*891 FILLER_34_121
*892 FILLER_34_133
*893 FILLER_34_139
*894 FILLER_34_141
*895 FILLER_34_15
*896 FILLER_34_153
*897 FILLER_34_165
*898 FILLER_34_177
*899 FILLER_34_189
*900 FILLER_34_195
*901 FILLER_34_197
*902 FILLER_34_209
*903 FILLER_34_221
*904 FILLER_34_233
*905 FILLER_34_245
*906 FILLER_34_251
*907 FILLER_34_253
*908 FILLER_34_265
*909 FILLER_34_27
*910 FILLER_34_277
*911 FILLER_34_289
*912 FILLER_34_29
*913 FILLER_34_297
*914 FILLER_34_3
*915 FILLER_34_41
*916 FILLER_34_53
*917 FILLER_34_65
*918 FILLER_34_77
*919 FILLER_34_83
*920 FILLER_34_85
*921 FILLER_34_97
*922 FILLER_35_105
*923 FILLER_35_111
*924 FILLER_35_113
*925 FILLER_35_125
*926 FILLER_35_137
*927 FILLER_35_149
*928 FILLER_35_161
*929 FILLER_35_167
*930 FILLER_35_169
*931 FILLER_35_181
*932 FILLER_35_193
*933 FILLER_35_20
*934 FILLER_35_205
*935 FILLER_35_217
*936 FILLER_35_223
*937 FILLER_35_225
*938 FILLER_35_237
*939 FILLER_35_249
*940 FILLER_35_261
*941 FILLER_35_273
*942 FILLER_35_279
*943 FILLER_35_281
*944 FILLER_35_293
*945 FILLER_35_3
*946 FILLER_35_32
*947 FILLER_35_44
*948 FILLER_35_57
*949 FILLER_35_69
*950 FILLER_35_8
*951 FILLER_35_81
*952 FILLER_35_93
*953 FILLER_36_109
*954 FILLER_36_121
*955 FILLER_36_133
*956 FILLER_36_139
*957 FILLER_36_141
*958 FILLER_36_15
*959 FILLER_36_153
*960 FILLER_36_165
*961 FILLER_36_177
*962 FILLER_36_189
*963 FILLER_36_195
*964 FILLER_36_197
*965 FILLER_36_209
*966 FILLER_36_221
*967 FILLER_36_233
*968 FILLER_36_245
*969 FILLER_36_251
*970 FILLER_36_253
*971 FILLER_36_265
*972 FILLER_36_27
*973 FILLER_36_277
*974 FILLER_36_289
*975 FILLER_36_29
*976 FILLER_36_297
*977 FILLER_36_3
*978 FILLER_36_41
*979 FILLER_36_53
*980 FILLER_36_65
*981 FILLER_36_77
*982 FILLER_36_83
*983 FILLER_36_85
*984 FILLER_36_97
*985 FILLER_37_105
*986 FILLER_37_111
*987 FILLER_37_113
*988 FILLER_37_125
*989 FILLER_37_137
*990 FILLER_37_149
*991 FILLER_37_15
*992 FILLER_37_161
*993 FILLER_37_167
*994 FILLER_37_169
*995 FILLER_37_181
*996 FILLER_37_193
*997 FILLER_37_205
*998 FILLER_37_217
*999 FILLER_37_223
*1000 FILLER_37_225
*1001 FILLER_37_237
*1002 FILLER_37_249
*1003 FILLER_37_261
*1004 FILLER_37_27
*1005 FILLER_37_273
*1006 FILLER_37_279
*1007 FILLER_37_281
*1008 FILLER_37_293
*1009 FILLER_37_3
*1010 FILLER_37_39
*1011 FILLER_37_51
*1012 FILLER_37_55
*1013 FILLER_37_57
*1014 FILLER_37_69
*1015 FILLER_37_81
*1016 FILLER_37_93
*1017 FILLER_38_109
*1018 FILLER_38_121
*1019 FILLER_38_133
*1020 FILLER_38_139
*1021 FILLER_38_141
*1022 FILLER_38_15
*1023 FILLER_38_153
*1024 FILLER_38_165
*1025 FILLER_38_177
*1026 FILLER_38_189
*1027 FILLER_38_195
*1028 FILLER_38_197
*1029 FILLER_38_209
*1030 FILLER_38_221
*1031 FILLER_38_233
*1032 FILLER_38_245
*1033 FILLER_38_251
*1034 FILLER_38_253
*1035 FILLER_38_265
*1036 FILLER_38_27
*1037 FILLER_38_277
*1038 FILLER_38_289
*1039 FILLER_38_29
*1040 FILLER_38_297
*1041 FILLER_38_3
*1042 FILLER_38_41
*1043 FILLER_38_53
*1044 FILLER_38_65
*1045 FILLER_38_77
*1046 FILLER_38_83
*1047 FILLER_38_85
*1048 FILLER_38_97
*1049 FILLER_39_105
*1050 FILLER_39_111
*1051 FILLER_39_113
*1052 FILLER_39_125
*1053 FILLER_39_137
*1054 FILLER_39_149
*1055 FILLER_39_161
*1056 FILLER_39_167
*1057 FILLER_39_169
*1058 FILLER_39_181
*1059 FILLER_39_193
*1060 FILLER_39_20
*1061 FILLER_39_205
*1062 FILLER_39_217
*1063 FILLER_39_223
*1064 FILLER_39_225
*1065 FILLER_39_237
*1066 FILLER_39_249
*1067 FILLER_39_261
*1068 FILLER_39_273
*1069 FILLER_39_279
*1070 FILLER_39_281
*1071 FILLER_39_293
*1072 FILLER_39_3
*1073 FILLER_39_32
*1074 FILLER_39_44
*1075 FILLER_39_57
*1076 FILLER_39_69
*1077 FILLER_39_8
*1078 FILLER_39_81
*1079 FILLER_39_93
*1080 FILLER_3_105
*1081 FILLER_3_111
*1082 FILLER_3_113
*1083 FILLER_3_125
*1084 FILLER_3_137
*1085 FILLER_3_149
*1086 FILLER_3_15
*1087 FILLER_3_161
*1088 FILLER_3_167
*1089 FILLER_3_169
*1090 FILLER_3_181
*1091 FILLER_3_193
*1092 FILLER_3_205
*1093 FILLER_3_217
*1094 FILLER_3_223
*1095 FILLER_3_225
*1096 FILLER_3_237
*1097 FILLER_3_249
*1098 FILLER_3_261
*1099 FILLER_3_27
*1100 FILLER_3_273
*1101 FILLER_3_279
*1102 FILLER_3_281
*1103 FILLER_3_293
*1104 FILLER_3_3
*1105 FILLER_3_39
*1106 FILLER_3_51
*1107 FILLER_3_55
*1108 FILLER_3_57
*1109 FILLER_3_69
*1110 FILLER_3_81
*1111 FILLER_3_93
*1112 FILLER_40_109
*1113 FILLER_40_121
*1114 FILLER_40_133
*1115 FILLER_40_139
*1116 FILLER_40_141
*1117 FILLER_40_15
*1118 FILLER_40_153
*1119 FILLER_40_165
*1120 FILLER_40_177
*1121 FILLER_40_189
*1122 FILLER_40_195
*1123 FILLER_40_197
*1124 FILLER_40_209
*1125 FILLER_40_221
*1126 FILLER_40_233
*1127 FILLER_40_245
*1128 FILLER_40_251
*1129 FILLER_40_253
*1130 FILLER_40_265
*1131 FILLER_40_27
*1132 FILLER_40_277
*1133 FILLER_40_289
*1134 FILLER_40_29
*1135 FILLER_40_297
*1136 FILLER_40_3
*1137 FILLER_40_41
*1138 FILLER_40_53
*1139 FILLER_40_65
*1140 FILLER_40_77
*1141 FILLER_40_83
*1142 FILLER_40_85
*1143 FILLER_40_97
*1144 FILLER_41_105
*1145 FILLER_41_111
*1146 FILLER_41_113
*1147 FILLER_41_125
*1148 FILLER_41_137
*1149 FILLER_41_149
*1150 FILLER_41_15
*1151 FILLER_41_161
*1152 FILLER_41_167
*1153 FILLER_41_169
*1154 FILLER_41_181
*1155 FILLER_41_193
*1156 FILLER_41_205
*1157 FILLER_41_217
*1158 FILLER_41_223
*1159 FILLER_41_225
*1160 FILLER_41_237
*1161 FILLER_41_249
*1162 FILLER_41_261
*1163 FILLER_41_27
*1164 FILLER_41_273
*1165 FILLER_41_279
*1166 FILLER_41_281
*1167 FILLER_41_293
*1168 FILLER_41_3
*1169 FILLER_41_39
*1170 FILLER_41_51
*1171 FILLER_41_55
*1172 FILLER_41_57
*1173 FILLER_41_69
*1174 FILLER_41_81
*1175 FILLER_41_93
*1176 FILLER_42_109
*1177 FILLER_42_121
*1178 FILLER_42_133
*1179 FILLER_42_139
*1180 FILLER_42_141
*1181 FILLER_42_153
*1182 FILLER_42_165
*1183 FILLER_42_177
*1184 FILLER_42_189
*1185 FILLER_42_195
*1186 FILLER_42_197
*1187 FILLER_42_20
*1188 FILLER_42_209
*1189 FILLER_42_221
*1190 FILLER_42_233
*1191 FILLER_42_245
*1192 FILLER_42_251
*1193 FILLER_42_253
*1194 FILLER_42_265
*1195 FILLER_42_277
*1196 FILLER_42_289
*1197 FILLER_42_29
*1198 FILLER_42_297
*1199 FILLER_42_3
*1200 FILLER_42_41
*1201 FILLER_42_53
*1202 FILLER_42_65
*1203 FILLER_42_77
*1204 FILLER_42_8
*1205 FILLER_42_83
*1206 FILLER_42_85
*1207 FILLER_42_97
*1208 FILLER_43_105
*1209 FILLER_43_111
*1210 FILLER_43_113
*1211 FILLER_43_125
*1212 FILLER_43_137
*1213 FILLER_43_149
*1214 FILLER_43_15
*1215 FILLER_43_161
*1216 FILLER_43_167
*1217 FILLER_43_169
*1218 FILLER_43_181
*1219 FILLER_43_193
*1220 FILLER_43_205
*1221 FILLER_43_217
*1222 FILLER_43_223
*1223 FILLER_43_225
*1224 FILLER_43_237
*1225 FILLER_43_249
*1226 FILLER_43_261
*1227 FILLER_43_27
*1228 FILLER_43_273
*1229 FILLER_43_279
*1230 FILLER_43_281
*1231 FILLER_43_293
*1232 FILLER_43_3
*1233 FILLER_43_39
*1234 FILLER_43_51
*1235 FILLER_43_55
*1236 FILLER_43_57
*1237 FILLER_43_69
*1238 FILLER_43_81
*1239 FILLER_43_93
*1240 FILLER_44_109
*1241 FILLER_44_121
*1242 FILLER_44_133
*1243 FILLER_44_139
*1244 FILLER_44_141
*1245 FILLER_44_15
*1246 FILLER_44_153
*1247 FILLER_44_165
*1248 FILLER_44_177
*1249 FILLER_44_189
*1250 FILLER_44_195
*1251 FILLER_44_197
*1252 FILLER_44_209
*1253 FILLER_44_221
*1254 FILLER_44_233
*1255 FILLER_44_245
*1256 FILLER_44_251
*1257 FILLER_44_253
*1258 FILLER_44_265
*1259 FILLER_44_27
*1260 FILLER_44_277
*1261 FILLER_44_289
*1262 FILLER_44_29
*1263 FILLER_44_297
*1264 FILLER_44_3
*1265 FILLER_44_41
*1266 FILLER_44_53
*1267 FILLER_44_65
*1268 FILLER_44_77
*1269 FILLER_44_83
*1270 FILLER_44_85
*1271 FILLER_44_97
*1272 FILLER_45_105
*1273 FILLER_45_111
*1274 FILLER_45_113
*1275 FILLER_45_125
*1276 FILLER_45_137
*1277 FILLER_45_149
*1278 FILLER_45_15
*1279 FILLER_45_161
*1280 FILLER_45_167
*1281 FILLER_45_169
*1282 FILLER_45_181
*1283 FILLER_45_193
*1284 FILLER_45_205
*1285 FILLER_45_217
*1286 FILLER_45_223
*1287 FILLER_45_225
*1288 FILLER_45_237
*1289 FILLER_45_249
*1290 FILLER_45_261
*1291 FILLER_45_27
*1292 FILLER_45_273
*1293 FILLER_45_279
*1294 FILLER_45_281
*1295 FILLER_45_293
*1296 FILLER_45_3
*1297 FILLER_45_39
*1298 FILLER_45_51
*1299 FILLER_45_55
*1300 FILLER_45_57
*1301 FILLER_45_69
*1302 FILLER_45_81
*1303 FILLER_45_93
*1304 FILLER_46_109
*1305 FILLER_46_121
*1306 FILLER_46_133
*1307 FILLER_46_139
*1308 FILLER_46_141
*1309 FILLER_46_153
*1310 FILLER_46_165
*1311 FILLER_46_177
*1312 FILLER_46_189
*1313 FILLER_46_195
*1314 FILLER_46_197
*1315 FILLER_46_20
*1316 FILLER_46_209
*1317 FILLER_46_221
*1318 FILLER_46_233
*1319 FILLER_46_245
*1320 FILLER_46_251
*1321 FILLER_46_253
*1322 FILLER_46_265
*1323 FILLER_46_277
*1324 FILLER_46_289
*1325 FILLER_46_29
*1326 FILLER_46_297
*1327 FILLER_46_3
*1328 FILLER_46_41
*1329 FILLER_46_53
*1330 FILLER_46_65
*1331 FILLER_46_77
*1332 FILLER_46_8
*1333 FILLER_46_83
*1334 FILLER_46_85
*1335 FILLER_46_97
*1336 FILLER_47_105
*1337 FILLER_47_111
*1338 FILLER_47_113
*1339 FILLER_47_125
*1340 FILLER_47_137
*1341 FILLER_47_149
*1342 FILLER_47_15
*1343 FILLER_47_161
*1344 FILLER_47_167
*1345 FILLER_47_169
*1346 FILLER_47_181
*1347 FILLER_47_193
*1348 FILLER_47_205
*1349 FILLER_47_217
*1350 FILLER_47_223
*1351 FILLER_47_225
*1352 FILLER_47_237
*1353 FILLER_47_249
*1354 FILLER_47_261
*1355 FILLER_47_27
*1356 FILLER_47_273
*1357 FILLER_47_279
*1358 FILLER_47_281
*1359 FILLER_47_293
*1360 FILLER_47_3
*1361 FILLER_47_39
*1362 FILLER_47_51
*1363 FILLER_47_55
*1364 FILLER_47_57
*1365 FILLER_47_69
*1366 FILLER_47_81
*1367 FILLER_47_93
*1368 FILLER_48_109
*1369 FILLER_48_121
*1370 FILLER_48_133
*1371 FILLER_48_139
*1372 FILLER_48_141
*1373 FILLER_48_15
*1374 FILLER_48_153
*1375 FILLER_48_165
*1376 FILLER_48_177
*1377 FILLER_48_189
*1378 FILLER_48_195
*1379 FILLER_48_197
*1380 FILLER_48_209
*1381 FILLER_48_221
*1382 FILLER_48_233
*1383 FILLER_48_245
*1384 FILLER_48_251
*1385 FILLER_48_253
*1386 FILLER_48_265
*1387 FILLER_48_27
*1388 FILLER_48_277
*1389 FILLER_48_289
*1390 FILLER_48_29
*1391 FILLER_48_297
*1392 FILLER_48_3
*1393 FILLER_48_41
*1394 FILLER_48_53
*1395 FILLER_48_65
*1396 FILLER_48_77
*1397 FILLER_48_83
*1398 FILLER_48_85
*1399 FILLER_48_97
*1400 FILLER_49_105
*1401 FILLER_49_111
*1402 FILLER_49_113
*1403 FILLER_49_125
*1404 FILLER_49_137
*1405 FILLER_49_149
*1406 FILLER_49_15
*1407 FILLER_49_161
*1408 FILLER_49_167
*1409 FILLER_49_169
*1410 FILLER_49_181
*1411 FILLER_49_193
*1412 FILLER_49_205
*1413 FILLER_49_217
*1414 FILLER_49_223
*1415 FILLER_49_225
*1416 FILLER_49_237
*1417 FILLER_49_249
*1418 FILLER_49_261
*1419 FILLER_49_27
*1420 FILLER_49_273
*1421 FILLER_49_279
*1422 FILLER_49_281
*1423 FILLER_49_293
*1424 FILLER_49_3
*1425 FILLER_49_39
*1426 FILLER_49_51
*1427 FILLER_49_55
*1428 FILLER_49_57
*1429 FILLER_49_69
*1430 FILLER_49_81
*1431 FILLER_49_93
*1432 FILLER_4_109
*1433 FILLER_4_121
*1434 FILLER_4_133
*1435 FILLER_4_139
*1436 FILLER_4_141
*1437 FILLER_4_15
*1438 FILLER_4_153
*1439 FILLER_4_165
*1440 FILLER_4_177
*1441 FILLER_4_189
*1442 FILLER_4_195
*1443 FILLER_4_197
*1444 FILLER_4_209
*1445 FILLER_4_221
*1446 FILLER_4_233
*1447 FILLER_4_245
*1448 FILLER_4_251
*1449 FILLER_4_253
*1450 FILLER_4_265
*1451 FILLER_4_27
*1452 FILLER_4_277
*1453 FILLER_4_289
*1454 FILLER_4_29
*1455 FILLER_4_297
*1456 FILLER_4_3
*1457 FILLER_4_41
*1458 FILLER_4_53
*1459 FILLER_4_65
*1460 FILLER_4_77
*1461 FILLER_4_83
*1462 FILLER_4_85
*1463 FILLER_4_97
*1464 FILLER_50_109
*1465 FILLER_50_121
*1466 FILLER_50_133
*1467 FILLER_50_139
*1468 FILLER_50_141
*1469 FILLER_50_153
*1470 FILLER_50_165
*1471 FILLER_50_177
*1472 FILLER_50_189
*1473 FILLER_50_195
*1474 FILLER_50_197
*1475 FILLER_50_20
*1476 FILLER_50_209
*1477 FILLER_50_221
*1478 FILLER_50_233
*1479 FILLER_50_245
*1480 FILLER_50_251
*1481 FILLER_50_253
*1482 FILLER_50_265
*1483 FILLER_50_277
*1484 FILLER_50_289
*1485 FILLER_50_29
*1486 FILLER_50_297
*1487 FILLER_50_3
*1488 FILLER_50_41
*1489 FILLER_50_53
*1490 FILLER_50_65
*1491 FILLER_50_77
*1492 FILLER_50_8
*1493 FILLER_50_83
*1494 FILLER_50_85
*1495 FILLER_50_97
*1496 FILLER_51_105
*1497 FILLER_51_111
*1498 FILLER_51_113
*1499 FILLER_51_125
*1500 FILLER_51_137
*1501 FILLER_51_149
*1502 FILLER_51_15
*1503 FILLER_51_161
*1504 FILLER_51_167
*1505 FILLER_51_169
*1506 FILLER_51_181
*1507 FILLER_51_193
*1508 FILLER_51_205
*1509 FILLER_51_217
*1510 FILLER_51_223
*1511 FILLER_51_225
*1512 FILLER_51_237
*1513 FILLER_51_249
*1514 FILLER_51_261
*1515 FILLER_51_27
*1516 FILLER_51_273
*1517 FILLER_51_279
*1518 FILLER_51_281
*1519 FILLER_51_293
*1520 FILLER_51_3
*1521 FILLER_51_39
*1522 FILLER_51_51
*1523 FILLER_51_55
*1524 FILLER_51_57
*1525 FILLER_51_69
*1526 FILLER_51_81
*1527 FILLER_51_93
*1528 FILLER_52_109
*1529 FILLER_52_121
*1530 FILLER_52_133
*1531 FILLER_52_139
*1532 FILLER_52_141
*1533 FILLER_52_15
*1534 FILLER_52_153
*1535 FILLER_52_165
*1536 FILLER_52_177
*1537 FILLER_52_189
*1538 FILLER_52_195
*1539 FILLER_52_197
*1540 FILLER_52_209
*1541 FILLER_52_221
*1542 FILLER_52_233
*1543 FILLER_52_245
*1544 FILLER_52_251
*1545 FILLER_52_253
*1546 FILLER_52_265
*1547 FILLER_52_27
*1548 FILLER_52_277
*1549 FILLER_52_289
*1550 FILLER_52_29
*1551 FILLER_52_297
*1552 FILLER_52_3
*1553 FILLER_52_41
*1554 FILLER_52_53
*1555 FILLER_52_65
*1556 FILLER_52_77
*1557 FILLER_52_83
*1558 FILLER_52_85
*1559 FILLER_52_97
*1560 FILLER_53_105
*1561 FILLER_53_111
*1562 FILLER_53_113
*1563 FILLER_53_125
*1564 FILLER_53_137
*1565 FILLER_53_149
*1566 FILLER_53_15
*1567 FILLER_53_161
*1568 FILLER_53_167
*1569 FILLER_53_169
*1570 FILLER_53_181
*1571 FILLER_53_193
*1572 FILLER_53_205
*1573 FILLER_53_217
*1574 FILLER_53_223
*1575 FILLER_53_225
*1576 FILLER_53_237
*1577 FILLER_53_249
*1578 FILLER_53_261
*1579 FILLER_53_27
*1580 FILLER_53_273
*1581 FILLER_53_279
*1582 FILLER_53_281
*1583 FILLER_53_293
*1584 FILLER_53_3
*1585 FILLER_53_39
*1586 FILLER_53_51
*1587 FILLER_53_55