*SPEF "ieee 1481-1999"
*DESIGN "user_module_342981109408072274"
*DATE "11:11:11 Fri 11 11, 1111"
*VENDOR "OpenRCX"
*PROGRAM "Parallel Extraction"
*VERSION "1.0"
*DESIGN_FLOW "NAME_SCOPE LOCAL" "PIN_CAP NONE"
*DIVIDER /
*DELIMITER :
*BUS_DELIMITER []
*T_UNIT 1 NS
*C_UNIT 1 PF
*R_UNIT 1 OHM
*L_UNIT 1 HENRY

*NAME_MAP
*1 io_in[0]
*2 io_in[1]
*3 io_in[2]
*4 io_in[3]
*5 io_in[4]
*6 io_in[5]
*7 io_in[6]
*8 io_in[7]
*9 io_out[0]
*10 io_out[1]
*11 io_out[2]
*12 io_out[3]
*13 io_out[4]
*14 io_out[5]
*15 io_out[6]
*16 io_out[7]
*19 _00_
*20 _01_
*21 _02_
*22 _03_
*23 _04_
*24 _05_
*25 _06_
*26 _07_
*27 _08_
*28 _09_
*29 _10_
*30 _11_
*31 _12_
*32 _13_
*33 _14_
*34 _15_
*35 _16_
*36 _17_
*37 _18_
*38 _19_
*39 _20_
*40 _21_
*41 _22_
*42 _23_
*43 _24_
*44 clknet_0_flipflop1\.clk
*45 clknet_0_io_in[0]
*46 clknet_1_0__leaf_flipflop1\.clk
*47 clknet_1_0__leaf_io_in[0]
*48 clknet_1_1__leaf_flipflop1\.clk
*49 clknet_1_1__leaf_io_in[0]
*50 flipflop1\.clk
*51 flipflop1\.q
*52 flipflop10\.d
*53 flipflop10\.q
*54 flipflop11\.d
*55 flipflop11\.q
*56 flipflop12\.d
*57 flipflop12\.q
*58 flipflop13\.d
*59 flipflop13\.q
*60 flipflop14\.d
*61 flipflop14\.q
*62 flipflop15\.d
*63 flipflop15\.q
*64 flipflop16\.d
*65 flipflop16\.q
*66 flipflop17\.d
*67 flipflop17\.q
*68 flipflop18\.d
*69 flipflop18\.q
*70 flipflop19\.d
*71 flipflop19\.q
*72 flipflop2\.q
*73 flipflop20\.d
*74 flipflop20\.q
*75 flipflop3\.q
*76 flipflop4\.q
*77 flipflop5\.q
*78 flipflop6\.q
*79 flipflop7\.q
*80 flipflop8\.q
*81 flipflop9\.d
*82 flipflop9\.q
*83 mux10\.out
*84 mux11\.out
*85 mux12\.out
*86 mux5\.out
*87 mux6\.out
*88 mux7\.out
*89 mux8\.out
*90 mux9\.out
*91 net1
*92 net2
*93 net3
*94 net4
*95 FILLER_0_109
*96 FILLER_0_113
*97 FILLER_0_125
*98 FILLER_0_137
*99 FILLER_0_141
*100 FILLER_0_153
*101 FILLER_0_165
*102 FILLER_0_169
*103 FILLER_0_181
*104 FILLER_0_193
*105 FILLER_0_197
*106 FILLER_0_209
*107 FILLER_0_221
*108 FILLER_0_225
*109 FILLER_0_237
*110 FILLER_0_249
*111 FILLER_0_253
*112 FILLER_0_26
*113 FILLER_0_265
*114 FILLER_0_277
*115 FILLER_0_281
*116 FILLER_0_29
*117 FILLER_0_293
*118 FILLER_0_3
*119 FILLER_0_51
*120 FILLER_0_55
*121 FILLER_0_57
*122 FILLER_0_75
*123 FILLER_0_83
*124 FILLER_0_85
*125 FILLER_0_97
*126 FILLER_10_109
*127 FILLER_10_121
*128 FILLER_10_133
*129 FILLER_10_139
*130 FILLER_10_141
*131 FILLER_10_15
*132 FILLER_10_153
*133 FILLER_10_165
*134 FILLER_10_177
*135 FILLER_10_189
*136 FILLER_10_195
*137 FILLER_10_197
*138 FILLER_10_209
*139 FILLER_10_221
*140 FILLER_10_233
*141 FILLER_10_245
*142 FILLER_10_251
*143 FILLER_10_253
*144 FILLER_10_265
*145 FILLER_10_27
*146 FILLER_10_277
*147 FILLER_10_289
*148 FILLER_10_29
*149 FILLER_10_297
*150 FILLER_10_3
*151 FILLER_10_41
*152 FILLER_10_53
*153 FILLER_10_65
*154 FILLER_10_77
*155 FILLER_10_83
*156 FILLER_10_85
*157 FILLER_10_97
*158 FILLER_11_105
*159 FILLER_11_111
*160 FILLER_11_113
*161 FILLER_11_125
*162 FILLER_11_137
*163 FILLER_11_149
*164 FILLER_11_15
*165 FILLER_11_161
*166 FILLER_11_167
*167 FILLER_11_169
*168 FILLER_11_181
*169 FILLER_11_193
*170 FILLER_11_205
*171 FILLER_11_217
*172 FILLER_11_223
*173 FILLER_11_225
*174 FILLER_11_237
*175 FILLER_11_249
*176 FILLER_11_261
*177 FILLER_11_27
*178 FILLER_11_273
*179 FILLER_11_279
*180 FILLER_11_281
*181 FILLER_11_293
*182 FILLER_11_3
*183 FILLER_11_39
*184 FILLER_11_51
*185 FILLER_11_55
*186 FILLER_11_57
*187 FILLER_11_69
*188 FILLER_11_81
*189 FILLER_11_93
*190 FILLER_12_109
*191 FILLER_12_121
*192 FILLER_12_133
*193 FILLER_12_139
*194 FILLER_12_141
*195 FILLER_12_153
*196 FILLER_12_165
*197 FILLER_12_177
*198 FILLER_12_189
*199 FILLER_12_195
*200 FILLER_12_197
*201 FILLER_12_20
*202 FILLER_12_209
*203 FILLER_12_221
*204 FILLER_12_233
*205 FILLER_12_245
*206 FILLER_12_251
*207 FILLER_12_253
*208 FILLER_12_265
*209 FILLER_12_277
*210 FILLER_12_289
*211 FILLER_12_29
*212 FILLER_12_297
*213 FILLER_12_3
*214 FILLER_12_41
*215 FILLER_12_53
*216 FILLER_12_65
*217 FILLER_12_77
*218 FILLER_12_8
*219 FILLER_12_83
*220 FILLER_12_85
*221 FILLER_12_97
*222 FILLER_13_105
*223 FILLER_13_111
*224 FILLER_13_113
*225 FILLER_13_125
*226 FILLER_13_137
*227 FILLER_13_149
*228 FILLER_13_15
*229 FILLER_13_161
*230 FILLER_13_167
*231 FILLER_13_169
*232 FILLER_13_181
*233 FILLER_13_193
*234 FILLER_13_205
*235 FILLER_13_217
*236 FILLER_13_223
*237 FILLER_13_225
*238 FILLER_13_237
*239 FILLER_13_249
*240 FILLER_13_261
*241 FILLER_13_27
*242 FILLER_13_273
*243 FILLER_13_279
*244 FILLER_13_281
*245 FILLER_13_293
*246 FILLER_13_3
*247 FILLER_13_39
*248 FILLER_13_51
*249 FILLER_13_55
*250 FILLER_13_57
*251 FILLER_13_69
*252 FILLER_13_81
*253 FILLER_13_93
*254 FILLER_14_109
*255 FILLER_14_121
*256 FILLER_14_133
*257 FILLER_14_139
*258 FILLER_14_141
*259 FILLER_14_15
*260 FILLER_14_153
*261 FILLER_14_165
*262 FILLER_14_177
*263 FILLER_14_189
*264 FILLER_14_195
*265 FILLER_14_197
*266 FILLER_14_209
*267 FILLER_14_221
*268 FILLER_14_233
*269 FILLER_14_245
*270 FILLER_14_251
*271 FILLER_14_253
*272 FILLER_14_265
*273 FILLER_14_27
*274 FILLER_14_277
*275 FILLER_14_289
*276 FILLER_14_29
*277 FILLER_14_297
*278 FILLER_14_3
*279 FILLER_14_41
*280 FILLER_14_53
*281 FILLER_14_65
*282 FILLER_14_77
*283 FILLER_14_83
*284 FILLER_14_85
*285 FILLER_14_97
*286 FILLER_15_105
*287 FILLER_15_111
*288 FILLER_15_113
*289 FILLER_15_125
*290 FILLER_15_137
*291 FILLER_15_149
*292 FILLER_15_15
*293 FILLER_15_161
*294 FILLER_15_167
*295 FILLER_15_169
*296 FILLER_15_181
*297 FILLER_15_193
*298 FILLER_15_205
*299 FILLER_15_217
*300 FILLER_15_223
*301 FILLER_15_225
*302 FILLER_15_237
*303 FILLER_15_249
*304 FILLER_15_261
*305 FILLER_15_27
*306 FILLER_15_273
*307 FILLER_15_279
*308 FILLER_15_281
*309 FILLER_15_293
*310 FILLER_15_3
*311 FILLER_15_39
*312 FILLER_15_51
*313 FILLER_15_55
*314 FILLER_15_57
*315 FILLER_15_69
*316 FILLER_15_81
*317 FILLER_15_93
*318 FILLER_16_109
*319 FILLER_16_121
*320 FILLER_16_133
*321 FILLER_16_139
*322 FILLER_16_141
*323 FILLER_16_153
*324 FILLER_16_165
*325 FILLER_16_177
*326 FILLER_16_189
*327 FILLER_16_195
*328 FILLER_16_197
*329 FILLER_16_209
*330 FILLER_16_221
*331 FILLER_16_233
*332 FILLER_16_245
*333 FILLER_16_251
*334 FILLER_16_253
*335 FILLER_16_26
*336 FILLER_16_265
*337 FILLER_16_277
*338 FILLER_16_289
*339 FILLER_16_29
*340 FILLER_16_297
*341 FILLER_16_3
*342 FILLER_16_41
*343 FILLER_16_53
*344 FILLER_16_65
*345 FILLER_16_77
*346 FILLER_16_83
*347 FILLER_16_85
*348 FILLER_16_9
*349 FILLER_16_97
*350 FILLER_17_105
*351 FILLER_17_111
*352 FILLER_17_113
*353 FILLER_17_125
*354 FILLER_17_137
*355 FILLER_17_149
*356 FILLER_17_15
*357 FILLER_17_161
*358 FILLER_17_167
*359 FILLER_17_169
*360 FILLER_17_181
*361 FILLER_17_193
*362 FILLER_17_205
*363 FILLER_17_217
*364 FILLER_17_223
*365 FILLER_17_225
*366 FILLER_17_23
*367 FILLER_17_237
*368 FILLER_17_249
*369 FILLER_17_261
*370 FILLER_17_273
*371 FILLER_17_279
*372 FILLER_17_281
*373 FILLER_17_293
*374 FILLER_17_3
*375 FILLER_17_40
*376 FILLER_17_52
*377 FILLER_17_57
*378 FILLER_17_69
*379 FILLER_17_81
*380 FILLER_17_93
*381 FILLER_18_109
*382 FILLER_18_121
*383 FILLER_18_133
*384 FILLER_18_139
*385 FILLER_18_141
*386 FILLER_18_15
*387 FILLER_18_153
*388 FILLER_18_165
*389 FILLER_18_177
*390 FILLER_18_189
*391 FILLER_18_195
*392 FILLER_18_197
*393 FILLER_18_209
*394 FILLER_18_221
*395 FILLER_18_233
*396 FILLER_18_245
*397 FILLER_18_251
*398 FILLER_18_253
*399 FILLER_18_265
*400 FILLER_18_27
*401 FILLER_18_277
*402 FILLER_18_289
*403 FILLER_18_29
*404 FILLER_18_297
*405 FILLER_18_3
*406 FILLER_18_41
*407 FILLER_18_53
*408 FILLER_18_65
*409 FILLER_18_77
*410 FILLER_18_83
*411 FILLER_18_85
*412 FILLER_18_97
*413 FILLER_19_105
*414 FILLER_19_111
*415 FILLER_19_113
*416 FILLER_19_125
*417 FILLER_19_137
*418 FILLER_19_149
*419 FILLER_19_16
*420 FILLER_19_161
*421 FILLER_19_167
*422 FILLER_19_169
*423 FILLER_19_181
*424 FILLER_19_193
*425 FILLER_19_205
*426 FILLER_19_217
*427 FILLER_19_223
*428 FILLER_19_225
*429 FILLER_19_237
*430 FILLER_19_249
*431 FILLER_19_261
*432 FILLER_19_273
*433 FILLER_19_279
*434 FILLER_19_281
*435 FILLER_19_293
*436 FILLER_19_3
*437 FILLER_19_33
*438 FILLER_19_45
*439 FILLER_19_53
*440 FILLER_19_57
*441 FILLER_19_69
*442 FILLER_19_8
*443 FILLER_19_81
*444 FILLER_19_93
*445 FILLER_1_10
*446 FILLER_1_111
*447 FILLER_1_113
*448 FILLER_1_125
*449 FILLER_1_137
*450 FILLER_1_149
*451 FILLER_1_161
*452 FILLER_1_167
*453 FILLER_1_169
*454 FILLER_1_181
*455 FILLER_1_193
*456 FILLER_1_205
*457 FILLER_1_217
*458 FILLER_1_223
*459 FILLER_1_225
*460 FILLER_1_237
*461 FILLER_1_249
*462 FILLER_1_261
*463 FILLER_1_273
*464 FILLER_1_279
*465 FILLER_1_281
*466 FILLER_1_293
*467 FILLER_1_3
*468 FILLER_1_36
*469 FILLER_1_49
*470 FILLER_1_55
*471 FILLER_1_57
*472 FILLER_1_75
*473 FILLER_1_87
*474 FILLER_1_99
*475 FILLER_20_109
*476 FILLER_20_121
*477 FILLER_20_133
*478 FILLER_20_139
*479 FILLER_20_141
*480 FILLER_20_153
*481 FILLER_20_165
*482 FILLER_20_177
*483 FILLER_20_189
*484 FILLER_20_195
*485 FILLER_20_197
*486 FILLER_20_20
*487 FILLER_20_209
*488 FILLER_20_221
*489 FILLER_20_233
*490 FILLER_20_245
*491 FILLER_20_251
*492 FILLER_20_253
*493 FILLER_20_265
*494 FILLER_20_277
*495 FILLER_20_289
*496 FILLER_20_29
*497 FILLER_20_297
*498 FILLER_20_3
*499 FILLER_20_41
*500 FILLER_20_53
*501 FILLER_20_65
*502 FILLER_20_77
*503 FILLER_20_8
*504 FILLER_20_83
*505 FILLER_20_85
*506 FILLER_20_97
*507 FILLER_21_105
*508 FILLER_21_111
*509 FILLER_21_113
*510 FILLER_21_125
*511 FILLER_21_137
*512 FILLER_21_149
*513 FILLER_21_16
*514 FILLER_21_161
*515 FILLER_21_167
*516 FILLER_21_169
*517 FILLER_21_181
*518 FILLER_21_193
*519 FILLER_21_205
*520 FILLER_21_217
*521 FILLER_21_223
*522 FILLER_21_225
*523 FILLER_21_237
*524 FILLER_21_249
*525 FILLER_21_261
*526 FILLER_21_273
*527 FILLER_21_279
*528 FILLER_21_28
*529 FILLER_21_281
*530 FILLER_21_293
*531 FILLER_21_3
*532 FILLER_21_40
*533 FILLER_21_52
*534 FILLER_21_57
*535 FILLER_21_69
*536 FILLER_21_81
*537 FILLER_21_9
*538 FILLER_21_93
*539 FILLER_22_109
*540 FILLER_22_121
*541 FILLER_22_133
*542 FILLER_22_139
*543 FILLER_22_141
*544 FILLER_22_15
*545 FILLER_22_153
*546 FILLER_22_165
*547 FILLER_22_177
*548 FILLER_22_189
*549 FILLER_22_195
*550 FILLER_22_197
*551 FILLER_22_209
*552 FILLER_22_22
*553 FILLER_22_221
*554 FILLER_22_233
*555 FILLER_22_245
*556 FILLER_22_251
*557 FILLER_22_253
*558 FILLER_22_265
*559 FILLER_22_277
*560 FILLER_22_289
*561 FILLER_22_29
*562 FILLER_22_297
*563 FILLER_22_3
*564 FILLER_22_47
*565 FILLER_22_59
*566 FILLER_22_71
*567 FILLER_22_8
*568 FILLER_22_83
*569 FILLER_22_85
*570 FILLER_22_97
*571 FILLER_23_105
*572 FILLER_23_111
*573 FILLER_23_113
*574 FILLER_23_125
*575 FILLER_23_137
*576 FILLER_23_149
*577 FILLER_23_15
*578 FILLER_23_161
*579 FILLER_23_167
*580 FILLER_23_169
*581 FILLER_23_181
*582 FILLER_23_193
*583 FILLER_23_205
*584 FILLER_23_217
*585 FILLER_23_22
*586 FILLER_23_223
*587 FILLER_23_225
*588 FILLER_23_237
*589 FILLER_23_249
*590 FILLER_23_261
*591 FILLER_23_273
*592 FILLER_23_279
*593 FILLER_23_281
*594 FILLER_23_29
*595 FILLER_23_293
*596 FILLER_23_3
*597 FILLER_23_36
*598 FILLER_23_48
*599 FILLER_23_57
*600 FILLER_23_69
*601 FILLER_23_8
*602 FILLER_23_81
*603 FILLER_23_93
*604 FILLER_24_109
*605 FILLER_24_121
*606 FILLER_24_133
*607 FILLER_24_139
*608 FILLER_24_141
*609 FILLER_24_153
*610 FILLER_24_165
*611 FILLER_24_177
*612 FILLER_24_189
*613 FILLER_24_195
*614 FILLER_24_197
*615 FILLER_24_209
*616 FILLER_24_21
*617 FILLER_24_221
*618 FILLER_24_233
*619 FILLER_24_245
*620 FILLER_24_251
*621 FILLER_24_253
*622 FILLER_24_265
*623 FILLER_24_27
*624 FILLER_24_277
*625 FILLER_24_289
*626 FILLER_24_29
*627 FILLER_24_297
*628 FILLER_24_3
*629 FILLER_24_47
*630 FILLER_24_59
*631 FILLER_24_71
*632 FILLER_24_83
*633 FILLER_24_85
*634 FILLER_24_97
*635 FILLER_25_105
*636 FILLER_25_111
*637 FILLER_25_113
*638 FILLER_25_125
*639 FILLER_25_137
*640 FILLER_25_149
*641 FILLER_25_15
*642 FILLER_25_161
*643 FILLER_25_167
*644 FILLER_25_169
*645 FILLER_25_181
*646 FILLER_25_193
*647 FILLER_25_205
*648 FILLER_25_217
*649 FILLER_25_223
*650 FILLER_25_225
*651 FILLER_25_237
*652 FILLER_25_249
*653 FILLER_25_261
*654 FILLER_25_273
*655 FILLER_25_279
*656 FILLER_25_281
*657 FILLER_25_293
*658 FILLER_25_3
*659 FILLER_25_33
*660 FILLER_25_40
*661 FILLER_25_47
*662 FILLER_25_55
*663 FILLER_25_57
*664 FILLER_25_69
*665 FILLER_25_81
*666 FILLER_25_93
*667 FILLER_26_109
*668 FILLER_26_121
*669 FILLER_26_133
*670 FILLER_26_139
*671 FILLER_26_141
*672 FILLER_26_15
*673 FILLER_26_153
*674 FILLER_26_165
*675 FILLER_26_177
*676 FILLER_26_189
*677 FILLER_26_19
*678 FILLER_26_195
*679 FILLER_26_197
*680 FILLER_26_209
*681 FILLER_26_221
*682 FILLER_26_233
*683 FILLER_26_24
*684 FILLER_26_245
*685 FILLER_26_251
*686 FILLER_26_253
*687 FILLER_26_265
*688 FILLER_26_277
*689 FILLER_26_289
*690 FILLER_26_29
*691 FILLER_26_297
*692 FILLER_26_3
*693 FILLER_26_35
*694 FILLER_26_47
*695 FILLER_26_51
*696 FILLER_26_55
*697 FILLER_26_67
*698 FILLER_26_79
*699 FILLER_26_83
*700 FILLER_26_85
*701 FILLER_26_97
*702 FILLER_27_105
*703 FILLER_27_111
*704 FILLER_27_113
*705 FILLER_27_125
*706 FILLER_27_137
*707 FILLER_27_149
*708 FILLER_27_161
*709 FILLER_27_167
*710 FILLER_27_169
*711 FILLER_27_181
*712 FILLER_27_193
*713 FILLER_27_205
*714 FILLER_27_217
*715 FILLER_27_223
*716 FILLER_27_225
*717 FILLER_27_237
*718 FILLER_27_249
*719 FILLER_27_261
*720 FILLER_27_273
*721 FILLER_27_279
*722 FILLER_27_281
*723 FILLER_27_293
*724 FILLER_27_3
*725 FILLER_27_36
*726 FILLER_27_48
*727 FILLER_27_57
*728 FILLER_27_69
*729 FILLER_27_8
*730 FILLER_27_81
*731 FILLER_27_93
*732 FILLER_28_109
*733 FILLER_28_121
*734 FILLER_28_133
*735 FILLER_28_139
*736 FILLER_28_141
*737 FILLER_28_153
*738 FILLER_28_165
*739 FILLER_28_177
*740 FILLER_28_189
*741 FILLER_28_195
*742 FILLER_28_197
*743 FILLER_28_209
*744 FILLER_28_21
*745 FILLER_28_221
*746 FILLER_28_233
*747 FILLER_28_245
*748 FILLER_28_251
*749 FILLER_28_253
*750 FILLER_28_265
*751 FILLER_28_27
*752 FILLER_28_277
*753 FILLER_28_289
*754 FILLER_28_29
*755 FILLER_28_297
*756 FILLER_28_3
*757 FILLER_28_41
*758 FILLER_28_53
*759 FILLER_28_65
*760 FILLER_28_77
*761 FILLER_28_83
*762 FILLER_28_85
*763 FILLER_28_9
*764 FILLER_28_97
*765 FILLER_29_108
*766 FILLER_29_113
*767 FILLER_29_125
*768 FILLER_29_137
*769 FILLER_29_149
*770 FILLER_29_161
*771 FILLER_29_167
*772 FILLER_29_169
*773 FILLER_29_17
*774 FILLER_29_181
*775 FILLER_29_193
*776 FILLER_29_205
*777 FILLER_29_217
*778 FILLER_29_223
*779 FILLER_29_225
*780 FILLER_29_237
*781 FILLER_29_249
*782 FILLER_29_26
*783 FILLER_29_261
*784 FILLER_29_273
*785 FILLER_29_279
*786 FILLER_29_281
*787 FILLER_29_293
*788 FILLER_29_3
*789 FILLER_29_38
*790 FILLER_29_50
*791 FILLER_29_57
*792 FILLER_29_72
*793 FILLER_29_84
*794 FILLER_29_96
*795 FILLER_2_109
*796 FILLER_2_121
*797 FILLER_2_133
*798 FILLER_2_139
*799 FILLER_2_141
*800 FILLER_2_153
*801 FILLER_2_165
*802 FILLER_2_177
*803 FILLER_2_189
*804 FILLER_2_195
*805 FILLER_2_197
*806 FILLER_2_209
*807 FILLER_2_221
*808 FILLER_2_233
*809 FILLER_2_245
*810 FILLER_2_25
*811 FILLER_2_251
*812 FILLER_2_253
*813 FILLER_2_265
*814 FILLER_2_277
*815 FILLER_2_289
*816 FILLER_2_29
*817 FILLER_2_297
*818 FILLER_2_3
*819 FILLER_2_47
*820 FILLER_2_67
*821 FILLER_2_79
*822 FILLER_2_83
*823 FILLER_2_85
*824 FILLER_2_97
*825 FILLER_30_109
*826 FILLER_30_121
*827 FILLER_30_133
*828 FILLER_30_139
*829 FILLER_30_141
*830 FILLER_30_15
*831 FILLER_30_153
*832 FILLER_30_165
*833 FILLER_30_177
*834 FILLER_30_189
*835 FILLER_30_195
*836 FILLER_30_197
*837 FILLER_30_209
*838 FILLER_30_21
*839 FILLER_30_221
*840 FILLER_30_233
*841 FILLER_30_245
*842 FILLER_30_251
*843 FILLER_30_253
*844 FILLER_30_265
*845 FILLER_30_27
*846 FILLER_30_277
*847 FILLER_30_289
*848 FILLER_30_29
*849 FILLER_30_297
*850 FILLER_30_3
*851 FILLER_30_35
*852 FILLER_30_42
*853 FILLER_30_54
*854 FILLER_30_66
*855 FILLER_30_78
*856 FILLER_30_85
*857 FILLER_30_97
*858 FILLER_31_105
*859 FILLER_31_111
*860 FILLER_31_113
*861 FILLER_31_125
*862 FILLER_31_137
*863 FILLER_31_14
*864 FILLER_31_149
*865 FILLER_31_161
*866 FILLER_31_167
*867 FILLER_31_169
*868 FILLER_31_181
*869 FILLER_31_193
*870 FILLER_31_205
*871 FILLER_31_217
*872 FILLER_31_223
*873 FILLER_31_225
*874 FILLER_31_237
*875 FILLER_31_249
*876 FILLER_31_26
*877 FILLER_31_261
*878 FILLER_31_273
*879 FILLER_31_279
*880 FILLER_31_281
*881 FILLER_31_293
*882 FILLER_31_3
*883 FILLER_31_46
*884 FILLER_31_54
*885 FILLER_31_57
*886 FILLER_31_69
*887 FILLER_31_81
*888 FILLER_31_93
*889 FILLER_32_109
*890 FILLER_32_121
*891 FILLER_32_133
*892 FILLER_32_139
*893 FILLER_32_141
*894 FILLER_32_153
*895 FILLER_32_165
*896 FILLER_32_177
*897 FILLER_32_189
*898 FILLER_32_195
*899 FILLER_32_197
*900 FILLER_32_20
*901 FILLER_32_209
*902 FILLER_32_221
*903 FILLER_32_233
*904 FILLER_32_245
*905 FILLER_32_251
*906 FILLER_32_253
*907 FILLER_32_265
*908 FILLER_32_277
*909 FILLER_32_289
*910 FILLER_32_29
*911 FILLER_32_297
*912 FILLER_32_3
*913 FILLER_32_34
*914 FILLER_32_46
*915 FILLER_32_58
*916 FILLER_32_70
*917 FILLER_32_82
*918 FILLER_32_85
*919 FILLER_32_9
*920 FILLER_32_97
*921 FILLER_33_105
*922 FILLER_33_111
*923 FILLER_33_113
*924 FILLER_33_125
*925 FILLER_33_137
*926 FILLER_33_149
*927 FILLER_33_161
*928 FILLER_33_167
*929 FILLER_33_169
*930 FILLER_33_181
*931 FILLER_33_193
*932 FILLER_33_20
*933 FILLER_33_205
*934 FILLER_33_217
*935 FILLER_33_223
*936 FILLER_33_225
*937 FILLER_33_237
*938 FILLER_33_249
*939 FILLER_33_261
*940 FILLER_33_273
*941 FILLER_33_279
*942 FILLER_33_281
*943 FILLER_33_293
*944 FILLER_33_3
*945 FILLER_33_40
*946 FILLER_33_52
*947 FILLER_33_57
*948 FILLER_33_69
*949 FILLER_33_81
*950 FILLER_33_93
*951 FILLER_34_109
*952 FILLER_34_121
*953 FILLER_34_133
*954 FILLER_34_139
*955 FILLER_34_141
*956 FILLER_34_15
*957 FILLER_34_153
*958 FILLER_34_165
*959 FILLER_34_177
*960 FILLER_34_189
*961 FILLER_34_195
*962 FILLER_34_197
*963 FILLER_34_209
*964 FILLER_34_221
*965 FILLER_34_233
*966 FILLER_34_245
*967 FILLER_34_251
*968 FILLER_34_253
*969 FILLER_34_265
*970 FILLER_34_27
*971 FILLER_34_277
*972 FILLER_34_289
*973 FILLER_34_29
*974 FILLER_34_297
*975 FILLER_34_3
*976 FILLER_34_47
*977 FILLER_34_59
*978 FILLER_34_71
*979 FILLER_34_8
*980 FILLER_34_83
*981 FILLER_34_85
*982 FILLER_34_97
*983 FILLER_35_105
*984 FILLER_35_111
*985 FILLER_35_113
*986 FILLER_35_125
*987 FILLER_35_137
*988 FILLER_35_149
*989 FILLER_35_16
*990 FILLER_35_161
*991 FILLER_35_167
*992 FILLER_35_169
*993 FILLER_35_181
*994 FILLER_35_193
*995 FILLER_35_205
*996 FILLER_35_217
*997 FILLER_35_223
*998 FILLER_35_225
*999 FILLER_35_23
*1000 FILLER_35_237
*1001 FILLER_35_249
*1002 FILLER_35_261
*1003 FILLER_35_273
*1004 FILLER_35_279
*1005 FILLER_35_281
*1006 FILLER_35_293
*1007 FILLER_35_3
*1008 FILLER_35_35
*1009 FILLER_35_47
*1010 FILLER_35_55
*1011 FILLER_35_57
*1012 FILLER_35_69
*1013 FILLER_35_81
*1014 FILLER_35_93
*1015 FILLER_36_109
*1016 FILLER_36_121
*1017 FILLER_36_133
*1018 FILLER_36_139
*1019 FILLER_36_141
*1020 FILLER_36_153
*1021 FILLER_36_16
*1022 FILLER_36_165
*1023 FILLER_36_177
*1024 FILLER_36_189
*1025 FILLER_36_195
*1026 FILLER_36_197
*1027 FILLER_36_209
*1028 FILLER_36_221
*1029 FILLER_36_233
*1030 FILLER_36_245
*1031 FILLER_36_251
*1032 FILLER_36_253
*1033 FILLER_36_26
*1034 FILLER_36_265
*1035 FILLER_36_277
*1036 FILLER_36_289
*1037 FILLER_36_29
*1038 FILLER_36_297
*1039 FILLER_36_3
*1040 FILLER_36_41
*1041 FILLER_36_53
*1042 FILLER_36_65
*1043 FILLER_36_77
*1044 FILLER_36_8
*1045 FILLER_36_83
*1046 FILLER_36_85
*1047 FILLER_36_97
*1048 FILLER_37_10
*1049 FILLER_37_100
*1050 FILLER_37_113
*1051 FILLER_37_125
*1052 FILLER_37_137
*1053 FILLER_37_149
*1054 FILLER_37_161
*1055 FILLER_37_167
*1056 FILLER_37_169
*1057 FILLER_37_181
*1058 FILLER_37_193
*1059 FILLER_37_205
*1060 FILLER_37_217
*1061 FILLER_37_22
*1062 FILLER_37_223
*1063 FILLER_37_225
*1064 FILLER_37_237
*1065 FILLER_37_249
*1066 FILLER_37_261
*1067 FILLER_37_273
*1068 FILLER_37_279
*1069 FILLER_37_281
*1070 FILLER_37_293
*1071 FILLER_37_3
*1072 FILLER_37_34
*1073 FILLER_37_46
*1074 FILLER_37_54
*1075 FILLER_37_57
*1076 FILLER_37_64
*1077 FILLER_37_76
*1078 FILLER_37_88
*1079 FILLER_38_109
*1080 FILLER_38_121
*1081 FILLER_38_133
*1082 FILLER_38_139
*1083 FILLER_38_14
*1084 FILLER_38_141
*1085 FILLER_38_153
*1086 FILLER_38_165
*1087 FILLER_38_177
*1088 FILLER_38_189
*1089 FILLER_38_195
*1090 FILLER_38_197
*1091 FILLER_38_209
*1092 FILLER_38_21
*1093 FILLER_38_221
*1094 FILLER_38_233
*1095 FILLER_38_245
*1096 FILLER_38_251
*1097 FILLER_38_253
*1098 FILLER_38_265
*1099 FILLER_38_27
*1100 FILLER_38_277
*1101 FILLER_38_289
*1102 FILLER_38_29
*1103 FILLER_38_297
*1104 FILLER_38_3
*1105 FILLER_38_40
*1106 FILLER_38_52
*1107 FILLER_38_64
*1108 FILLER_38_76
*1109 FILLER_38_85
*1110 FILLER_38_97
*1111 FILLER_39_10
*1112 FILLER_39_105
*1113 FILLER_39_111
*1114 FILLER_39_113
*1115 FILLER_39_125
*1116 FILLER_39_137
*1117 FILLER_39_149
*1118 FILLER_39_161
*1119 FILLER_39_167
*1120 FILLER_39_169
*1121 FILLER_39_17
*1122 FILLER_39_181
*1123 FILLER_39_193
*1124 FILLER_39_205
*1125 FILLER_39_217
*1126 FILLER_39_223
*1127 FILLER_39_225
*1128 FILLER_39_237
*1129 FILLER_39_24
*1130 FILLER_39_249
*1131 FILLER_39_261
*1132 FILLER_39_273
*1133 FILLER_39_279
*1134 FILLER_39_28
*1135 FILLER_39_281
*1136 FILLER_39_293
*1137 FILLER_39_3
*1138 FILLER_39_33
*1139 FILLER_39_45
*1140 FILLER_39_53
*1141 FILLER_39_57
*1142 FILLER_39_69
*1143 FILLER_39_81
*1144 FILLER_39_93
*1145 FILLER_3_105
*1146 FILLER_3_111
*1147 FILLER_3_113
*1148 FILLER_3_125
*1149 FILLER_3_137
*1150 FILLER_3_149
*1151 FILLER_3_161
*1152 FILLER_3_167
*1153 FILLER_3_169
*1154 FILLER_3_181
*1155 FILLER_3_193
*1156 FILLER_3_205
*1157 FILLER_3_217
*1158 FILLER_3_223
*1159 FILLER_3_225
*1160 FILLER_3_237
*1161 FILLER_3_249
*1162 FILLER_3_25
*1163 FILLER_3_261
*1164 FILLER_3_273
*1165 FILLER_3_279
*1166 FILLER_3_281
*1167 FILLER_3_293
*1168 FILLER_3_3
*1169 FILLER_3_49
*1170 FILLER_3_55
*1171 FILLER_3_57
*1172 FILLER_3_69
*1173 FILLER_3_81
*1174 FILLER_3_93
*1175 FILLER_40_109
*1176 FILLER_40_121
*1177 FILLER_40_133
*1178 FILLER_40_139
*1179 FILLER_40_141
*1180 FILLER_40_153
*1181 FILLER_40_165
*1182 FILLER_40_177
*1183 FILLER_40_189
*1184 FILLER_40_195
*1185 FILLER_40_197
*1186 FILLER_40_20
*1187 FILLER_40_209
*1188 FILLER_40_221
*1189 FILLER_40_233
*1190 FILLER_40_245
*1191 FILLER_40_251
*1192 FILLER_40_253
*1193 FILLER_40_265
*1194 FILLER_40_277
*1195 FILLER_40_289
*1196 FILLER_40_29
*1197 FILLER_40_297
*1198 FILLER_40_3
*1199 FILLER_40_35
*1200 FILLER_40_47
*1201 FILLER_40_59
*1202 FILLER_40_71
*1203 FILLER_40_83
*1204 FILLER_40_85
*1205 FILLER_40_97
*1206 FILLER_41_10
*1207 FILLER_41_105
*1208 FILLER_41_111
*1209 FILLER_41_113
*1210 FILLER_41_125
*1211 FILLER_41_137
*1212 FILLER_41_149
*1213 FILLER_41_161
*1214 FILLER_41_167
*1215 FILLER_41_169
*1216 FILLER_41_18
*1217 FILLER_41_181
*1218 FILLER_41_193
*1219 FILLER_41_205
*1220 FILLER_41_217
*1221 FILLER_41_223
*1222 FILLER_41_225
*1223 FILLER_41_237
*1224 FILLER_41_249
*1225 FILLER_41_261
*1226 FILLER_41_273
*1227 FILLER_41_279
*1228 FILLER_41_281
*1229 FILLER_41_29
*1230 FILLER_41_293
*1231 FILLER_41_3
*1232 FILLER_41_41
*1233 FILLER_41_53
*1234 FILLER_41_57
*1235 FILLER_41_69
*1236 FILLER_41_81
*1237 FILLER_41_93
*1238 FILLER_42_10
*1239 FILLER_42_109
*1240 FILLER_42_121
*1241 FILLER_42_133
*1242 FILLER_42_139
*1243 FILLER_42_141
*1244 FILLER_42_153
*1245 FILLER_42_165
*1246 FILLER_42_177
*1247 FILLER_42_189
*1248 FILLER_42_195
*1249 FILLER_42_197
*1250 FILLER_42_209
*1251 FILLER_42_22
*1252 FILLER_42_221
*1253 FILLER_42_233
*1254 FILLER_42_245
*1255 FILLER_42_251
*1256 FILLER_42_253
*1257 FILLER_42_265
*1258 FILLER_42_277
*1259 FILLER_42_289
*1260 FILLER_42_29
*1261 FILLER_42_297
*1262 FILLER_42_3
*1263 FILLER_42_41
*1264 FILLER_42_53
*1265 FILLER_42_65
*1266 FILLER_42_77
*1267 FILLER_42_83
*1268 FILLER_42_85
*1269 FILLER_42_97
*1270 FILLER_43_105
*1271 FILLER_43_111
*1272 FILLER_43_113
*1273 FILLER_43_125
*1274 FILLER_43_137
*1275 FILLER_43_149
*1276 FILLER_43_15
*1277 FILLER_43_161
*1278 FILLER_43_167
*1279 FILLER_43_169
*1280 FILLER_43_181
*1281 FILLER_43_193
*1282 FILLER_43_205
*1283 FILLER_43_217
*1284 FILLER_43_223
*1285 FILLER_43_225
*1286 FILLER_43_237
*1287 FILLER_43_249
*1288 FILLER_43_261
*1289 FILLER_43_27
*1290 FILLER_43_273
*1291 FILLER_43_279
*1292 FILLER_43_281
*1293 FILLER_43_293
*1294 FILLER_43_3
*1295 FILLER_43_39
*1296 FILLER_43_51
*1297 FILLER_43_55
*1298 FILLER_43_57
*1299 FILLER_43_69
*1300 FILLER_43_81
*1301 FILLER_43_93
*1302 FILLER_44_109
*1303 FILLER_44_121
*1304 FILLER_44_133
*1305 FILLER_44_139
*1306 FILLER_44_141
*1307 FILLER_44_15
*1308 FILLER_44_153
*1309 FILLER_44_165
*1310 FILLER_44_177
*1311 FILLER_44_189
*1312 FILLER_44_195
*1313 FILLER_44_197
*1314 FILLER_44_209
*1315 FILLER_44_221
*1316 FILLER_44_233
*1317 FILLER_44_245
*1318 FILLER_44_251
*1319 FILLER_44_253
*1320 FILLER_44_265
*1321 FILLER_44_27
*1322 FILLER_44_277
*1323 FILLER_44_289
*1324 FILLER_44_29
*1325 FILLER_44_297
*1326 FILLER_44_3
*1327 FILLER_44_41
*1328 FILLER_44_53
*1329 FILLER_44_65
*1330 FILLER_44_77
*1331 FILLER_44_83
*1332 FILLER_44_85
*1333 FILLER_44_97
*1334 FILLER_45_105
*1335 FILLER_45_111
*1336 FILLER_45_113
*1337 FILLER_45_125
*1338 FILLER_45_137
*1339 FILLER_45_149
*1340 FILLER_45_161
*1341 FILLER_45_167
*1342 FILLER_45_169
*1343 FILLER_45_181
*1344 FILLER_45_193
*1345 FILLER_45_205
*1346 FILLER_45_21
*1347 FILLER_45_217
*1348 FILLER_45_223
*1349 FILLER_45_225
*1350 FILLER_45_237
*1351 FILLER_45_249
*1352 FILLER_45_261
*1353 FILLER_45_273
*1354 FILLER_45_279
*1355 FILLER_45_281
*1356 FILLER_45_293
*1357 FILLER_45_3
*1358 FILLER_45_33
*1359 FILLER_45_45
*1360 FILLER_45_53
*1361 FILLER_45_57
*1362 FILLER_45_69
*1363 FILLER_45_81
*1364 FILLER_45_9
*1365 FILLER_45_93
*1366 FILLER_46_109
*1367 FILLER_46_12
*1368 FILLER_46_121
*1369 FILLER_46_133
*1370 FILLER_46_139
*1371 FILLER_46_141
*1372 FILLER_46_153
*1373 FILLER_46_165
*1374 FILLER_46_177
*1375 FILLER_46_189
*1376 FILLER_46_195
*1377 FILLER_46_197
*1378 FILLER_46_209
*1379 FILLER_46_221
*1380 FILLER_46_233
*1381 FILLER_46_24
*1382 FILLER_46_245
*1383 FILLER_46_251
*1384 FILLER_46_253
*1385 FILLER_46_265
*1386 FILLER_46_277
*1387 FILLER_46_289
*1388 FILLER_46_29
*1389 FILLER_46_297
*1390 FILLER_46_3
*1391 FILLER_46_41
*1392 FILLER_46_53
*1393 FILLER_46_65
*1394 FILLER_46_7
*1395 FILLER_46_77
*1396 FILLER_46_83
*1397 FILLER_46_85
*1398 FILLER_46_97
*1399 FILLER_47_105
*1400 FILLER_47_111
*1401 FILLER_47_113
*1402 FILLER_47_12
*1403 FILLER_47_125
*1404 FILLER_47_137
*1405 FILLER_47_149
*1406 FILLER_47_161
*1407 FILLER_47_167
*1408 FILLER_47_169
*1409 FILLER_47_181
*1410 FILLER_47_193
*1411 FILLER_47_205
*1412 FILLER_47_217
*1413 FILLER_47_223
*1414 FILLER_47_225
*1415 FILLER_47_237
*1416 FILLER_47_24
*1417 FILLER_47_249
*1418 FILLER_47_261
*1419 FILLER_47_273
*1420 FILLER_47_279
*1421 FILLER_47_281
*1422 FILLER_47_293
*1423 FILLER_47_3
*1424 FILLER_47_36
*1425 FILLER_47_48
*1426 FILLER_47_57
*1427 FILLER_47_69
*1428 FILLER_47_7
*1429 FILLER_47_81
*1430 FILLER_47_93
*1431 FILLER_48_109
*1432 FILLER_48_121
*1433 FILLER_48_133
*1434 FILLER_48_139
*1435 FILLER_48_141
*1436 FILLER_48_15
*1437 FILLER_48_153
*1438 FILLER_48_165
*1439 FILLER_48_177
*1440 FILLER_48_189
*1441 FILLER_48_195
*1442 FILLER_48_197
*1443 FILLER_48_209
*1444 FILLER_48_221
*1445 FILLER_48_233
*1446 FILLER_48_245
*1447 FILLER_48_251
*1448 FILLER_48_253
*1449 FILLER_48_265
*1450 FILLER_48_27
*1451 FILLER_48_277
*1452 FILLER_48_289
*1453 FILLER_48_29
*1454 FILLER_48_297
*1455 FILLER_48_3
*1456 FILLER_48_41
*1457 FILLER_48_53
*1458 FILLER_48_65
*1459 FILLER_48_77
*1460 FILLER_48_83
*1461 FILLER_48_85
*1462 FILLER_48_97
*1463 FILLER_49_105
*1464 FILLER_49_111
*1465 FILLER_49_113
*1466 FILLER_49_125
*1467 FILLER_49_137
*1468 FILLER_49_149
*1469 FILLER_49_15
*1470 FILLER_49_161
*1471 FILLER_49_167
*1472 FILLER_49_169
*1473 FILLER_49_181
*1474 FILLER_49_193
*1475 FILLER_49_205
*1476 FILLER_49_217
*1477 FILLER_49_223
*1478 FILLER_49_225
*1479 FILLER_49_237
*1480 FILLER_49_249
*1481 FILLER_49_261
*1482 FILLER_49_27
*1483 FILLER_49_273
*1484 FILLER_49_279
*1485 FILLER_49_281
*1486 FILLER_49_293
*1487 FILLER_49_3
*1488 FILLER_49_39
*1489 FILLER_49_51
*1490 FILLER_49_55
*1491 FILLER_49_57
*1492 FILLER_49_69
*1493 FILLER_49_81
*1494 FILLER_49_93
*1495 FILLER_4_109
*1496 FILLER_4_121
*1497 FILLER_4_133
*1498 FILLER_4_139
*1499 FILLER_4_141
*1500 FILLER_4_153
*1501 FILLER_4_165
*1502 FILLER_4_177
*1503 FILLER_4_189
*1504 FILLER_4_195
*1505 FILLER_4_197
*1506 FILLER_4_209
*1507 FILLER_4_221
*1508 FILLER_4_233
*1509 FILLER_4_245
*1510 FILLER_4_251
*1511 FILLER_4_253
*1512 FILLER_4_26
*1513 FILLER_4_265
*1514 FILLER_4_277
*1515 FILLER_4_289
*1516 FILLER_4_29
*1517 FILLER_4_297
*1518 FILLER_4_3
*1519 FILLER_4_47
*1520 FILLER_4_59
*1521 FILLER_4_71
*1522 FILLER_4_83
*1523 FILLER_4_85
*1524 FILLER_4_9
*1525 FILLER_4_97
*1526 FILLER_50_10
*1527 FILLER_50_109
*1528 FILLER_50_121
*1529 FILLER_50_133
*1530 FILLER_50_139
*1531 FILLER_50_141
*1532 FILLER_50_153
*1533 FILLER_50_165
*1534 FILLER_50_177
*1535 FILLER_50_189
*1536 FILLER_50_195
*1537 FILLER_50_197
*1538 FILLER_50_209
*1539 FILLER_50_22
*1540 FILLER_50_221
*1541 FILLER_50_233
*1542 FILLER_50_245
*1543 FILLER_50_251
*1544 FILLER_50_253
*1545 FILLER_50_265
*1546 FILLER_50_277
*1547 FILLER_50_289
*1548 FILLER_50_29
*1549 FILLER_50_297
*1550 FILLER_50_3
*1551 FILLER_50_41
*1552 FILLER_50_53
*1553 FILLER_50_65
*1554 FILLER_50_77
*1555 FILLER_50_83
*1556 FILLER_50_85
*1557 FILLER_50_97
*1558 FILLER_51_105
*1559 FILLER_51_111
*1560 FILLER_51_113
*1561 FILLER_51_125
*1562 FILLER_51_137
*1563 FILLER_51_149
*1564 FILLER_51_15
*1565 FILLER_51_161
*1566 FILLER_51_167
*1567 FILLER_51_169
*1568 FILLER_51_181
*1569 FILLER_51_193
*1570 FILLER_51_205
*1571 FILLER_51_217
*1572 FILLER_51_223
*1573 FILLER_51_225
*1574 FILLER_51_237
*1575 FILLER_51_249
*1576 FILLER_51_261
*1577 FILLER_51_27
*1578 FILLER_51_273
*1579 FILLER_51_279
*1580 FILLER_51_281
*1581 FILLER_51_293
*1582 FILLER_51_3
*1583 FILLER_51_39
*1584 FILLER_51_51
*1585 FILLER_51_55
*1586 FILLER_51_57
*1587 FILLER_51_69
*1588 FILLER_51_81
*1589 FILLER_51_93
*1590 FILLER_52_109
*1591 FILLER_52_121