*SPEF "ieee 1481-1999"
*DESIGN "user_module_348787952842703444"
*DATE "11:11:11 Fri 11 11, 1111"
*VENDOR "OpenRCX"
*PROGRAM "Parallel Extraction"
*VERSION "1.0"
*DESIGN_FLOW "NAME_SCOPE LOCAL" "PIN_CAP NONE"
*DIVIDER /
*DELIMITER :
*BUS_DELIMITER []
*T_UNIT 1 NS
*C_UNIT 1 PF
*R_UNIT 1 OHM
*L_UNIT 1 HENRY

*NAME_MAP
*1 io_in[0]
*2 io_in[1]
*3 io_in[2]
*4 io_in[3]
*5 io_in[4]
*6 io_in[5]
*7 io_in[6]
*8 io_in[7]
*9 io_out[0]
*10 io_out[1]
*11 io_out[2]
*12 io_out[3]
*13 io_out[4]
*14 net8
*15 net9
*16 net10
*19 _00_
*20 _01_
*21 _02_
*22 _03_
*23 _04_
*24 _05_
*25 _06_
*26 _07_
*27 _08_
*28 _09_
*29 _10_
*30 _11_
*31 _12_
*32 _13_
*33 clknet_0__00_
*34 clknet_0__01_
*35 clknet_0_io_in[0]
*36 clknet_1_0__leaf__00_
*37 clknet_1_0__leaf__01_
*38 clknet_1_0__leaf_io_in[0]
*39 clknet_1_1__leaf__00_
*40 clknet_1_1__leaf__01_
*41 clknet_1_1__leaf_io_in[0]
*42 gate17\.b
*43 gate19\.out
*44 net1
*45 net11
*46 net2
*47 net3
*48 net4
*49 net5
*50 net6
*51 net7
*52 xor6\.out
*53 xor8\.out
*54 FILLER_0_109
*55 FILLER_0_113
*56 FILLER_0_125
*57 FILLER_0_137
*58 FILLER_0_141
*59 FILLER_0_15
*60 FILLER_0_153
*61 FILLER_0_165
*62 FILLER_0_169
*63 FILLER_0_181
*64 FILLER_0_193
*65 FILLER_0_197
*66 FILLER_0_209
*67 FILLER_0_221
*68 FILLER_0_225
*69 FILLER_0_237
*70 FILLER_0_249
*71 FILLER_0_253
*72 FILLER_0_265
*73 FILLER_0_27
*74 FILLER_0_277
*75 FILLER_0_281
*76 FILLER_0_29
*77 FILLER_0_293
*78 FILLER_0_3
*79 FILLER_0_41
*80 FILLER_0_53
*81 FILLER_0_57
*82 FILLER_0_69
*83 FILLER_0_81
*84 FILLER_0_85
*85 FILLER_0_97
*86 FILLER_10_109
*87 FILLER_10_121
*88 FILLER_10_133
*89 FILLER_10_139
*90 FILLER_10_141
*91 FILLER_10_15
*92 FILLER_10_153
*93 FILLER_10_165
*94 FILLER_10_177
*95 FILLER_10_189
*96 FILLER_10_195
*97 FILLER_10_197
*98 FILLER_10_209
*99 FILLER_10_221
*100 FILLER_10_233
*101 FILLER_10_245
*102 FILLER_10_251
*103 FILLER_10_253
*104 FILLER_10_265
*105 FILLER_10_27
*106 FILLER_10_277
*107 FILLER_10_289
*108 FILLER_10_29
*109 FILLER_10_297
*110 FILLER_10_3
*111 FILLER_10_41
*112 FILLER_10_53
*113 FILLER_10_65
*114 FILLER_10_77
*115 FILLER_10_83
*116 FILLER_10_85
*117 FILLER_10_97
*118 FILLER_11_105
*119 FILLER_11_111
*120 FILLER_11_113
*121 FILLER_11_125
*122 FILLER_11_137
*123 FILLER_11_149
*124 FILLER_11_15
*125 FILLER_11_161
*126 FILLER_11_167
*127 FILLER_11_169
*128 FILLER_11_181
*129 FILLER_11_193
*130 FILLER_11_205
*131 FILLER_11_217
*132 FILLER_11_223
*133 FILLER_11_225
*134 FILLER_11_237
*135 FILLER_11_249
*136 FILLER_11_261
*137 FILLER_11_27
*138 FILLER_11_273
*139 FILLER_11_279
*140 FILLER_11_281
*141 FILLER_11_293
*142 FILLER_11_3
*143 FILLER_11_39
*144 FILLER_11_51
*145 FILLER_11_55
*146 FILLER_11_57
*147 FILLER_11_69
*148 FILLER_11_81
*149 FILLER_11_93
*150 FILLER_12_109
*151 FILLER_12_121
*152 FILLER_12_133
*153 FILLER_12_139
*154 FILLER_12_141
*155 FILLER_12_15
*156 FILLER_12_153
*157 FILLER_12_165
*158 FILLER_12_177
*159 FILLER_12_189
*160 FILLER_12_195
*161 FILLER_12_197
*162 FILLER_12_209
*163 FILLER_12_221
*164 FILLER_12_233
*165 FILLER_12_245
*166 FILLER_12_251
*167 FILLER_12_253
*168 FILLER_12_265
*169 FILLER_12_27
*170 FILLER_12_277
*171 FILLER_12_289
*172 FILLER_12_29
*173 FILLER_12_297
*174 FILLER_12_3
*175 FILLER_12_41
*176 FILLER_12_53
*177 FILLER_12_65
*178 FILLER_12_77
*179 FILLER_12_83
*180 FILLER_12_85
*181 FILLER_12_97
*182 FILLER_13_105
*183 FILLER_13_111
*184 FILLER_13_113
*185 FILLER_13_125
*186 FILLER_13_137
*187 FILLER_13_149
*188 FILLER_13_15
*189 FILLER_13_161
*190 FILLER_13_167
*191 FILLER_13_169
*192 FILLER_13_181
*193 FILLER_13_193
*194 FILLER_13_205
*195 FILLER_13_217
*196 FILLER_13_223
*197 FILLER_13_225
*198 FILLER_13_237
*199 FILLER_13_249
*200 FILLER_13_261
*201 FILLER_13_27
*202 FILLER_13_273
*203 FILLER_13_279
*204 FILLER_13_281
*205 FILLER_13_293
*206 FILLER_13_3
*207 FILLER_13_39
*208 FILLER_13_51
*209 FILLER_13_55
*210 FILLER_13_57
*211 FILLER_13_69
*212 FILLER_13_81
*213 FILLER_13_93
*214 FILLER_14_109
*215 FILLER_14_121
*216 FILLER_14_13
*217 FILLER_14_133
*218 FILLER_14_139
*219 FILLER_14_141
*220 FILLER_14_153
*221 FILLER_14_165
*222 FILLER_14_177
*223 FILLER_14_189
*224 FILLER_14_195
*225 FILLER_14_197
*226 FILLER_14_209
*227 FILLER_14_221
*228 FILLER_14_233
*229 FILLER_14_245
*230 FILLER_14_25
*231 FILLER_14_251
*232 FILLER_14_253
*233 FILLER_14_265
*234 FILLER_14_277
*235 FILLER_14_289
*236 FILLER_14_29
*237 FILLER_14_297
*238 FILLER_14_3
*239 FILLER_14_41
*240 FILLER_14_53
*241 FILLER_14_65
*242 FILLER_14_77
*243 FILLER_14_83
*244 FILLER_14_85
*245 FILLER_14_97
*246 FILLER_15_105
*247 FILLER_15_111
*248 FILLER_15_113
*249 FILLER_15_125
*250 FILLER_15_137
*251 FILLER_15_149
*252 FILLER_15_15
*253 FILLER_15_161
*254 FILLER_15_167
*255 FILLER_15_169
*256 FILLER_15_181
*257 FILLER_15_193
*258 FILLER_15_205
*259 FILLER_15_217
*260 FILLER_15_223
*261 FILLER_15_225
*262 FILLER_15_237
*263 FILLER_15_249
*264 FILLER_15_261
*265 FILLER_15_27
*266 FILLER_15_273
*267 FILLER_15_279
*268 FILLER_15_281
*269 FILLER_15_293
*270 FILLER_15_3
*271 FILLER_15_39
*272 FILLER_15_51
*273 FILLER_15_55
*274 FILLER_15_57
*275 FILLER_15_69
*276 FILLER_15_81
*277 FILLER_15_93
*278 FILLER_16_109
*279 FILLER_16_121
*280 FILLER_16_133
*281 FILLER_16_139
*282 FILLER_16_141
*283 FILLER_16_153
*284 FILLER_16_165
*285 FILLER_16_177
*286 FILLER_16_189
*287 FILLER_16_195
*288 FILLER_16_197
*289 FILLER_16_209
*290 FILLER_16_221
*291 FILLER_16_233
*292 FILLER_16_245
*293 FILLER_16_25
*294 FILLER_16_251
*295 FILLER_16_253
*296 FILLER_16_265
*297 FILLER_16_277
*298 FILLER_16_289
*299 FILLER_16_29
*300 FILLER_16_297
*301 FILLER_16_3
*302 FILLER_16_41
*303 FILLER_16_53
*304 FILLER_16_65
*305 FILLER_16_77
*306 FILLER_16_83
*307 FILLER_16_85
*308 FILLER_16_97
*309 FILLER_17_105
*310 FILLER_17_111
*311 FILLER_17_113
*312 FILLER_17_125
*313 FILLER_17_137
*314 FILLER_17_149
*315 FILLER_17_15
*316 FILLER_17_161
*317 FILLER_17_167
*318 FILLER_17_169
*319 FILLER_17_181
*320 FILLER_17_193
*321 FILLER_17_205
*322 FILLER_17_217
*323 FILLER_17_223
*324 FILLER_17_225
*325 FILLER_17_237
*326 FILLER_17_249
*327 FILLER_17_261
*328 FILLER_17_273
*329 FILLER_17_279
*330 FILLER_17_281
*331 FILLER_17_293
*332 FILLER_17_3
*333 FILLER_17_36
*334 FILLER_17_48
*335 FILLER_17_57
*336 FILLER_17_69
*337 FILLER_17_81
*338 FILLER_17_93
*339 FILLER_18_109
*340 FILLER_18_121
*341 FILLER_18_133
*342 FILLER_18_139
*343 FILLER_18_141
*344 FILLER_18_153
*345 FILLER_18_165
*346 FILLER_18_177
*347 FILLER_18_18
*348 FILLER_18_189
*349 FILLER_18_195
*350 FILLER_18_197
*351 FILLER_18_209
*352 FILLER_18_221
*353 FILLER_18_233
*354 FILLER_18_245
*355 FILLER_18_25
*356 FILLER_18_251
*357 FILLER_18_253
*358 FILLER_18_265
*359 FILLER_18_277
*360 FILLER_18_289
*361 FILLER_18_29
*362 FILLER_18_297
*363 FILLER_18_3
*364 FILLER_18_41
*365 FILLER_18_53
*366 FILLER_18_65
*367 FILLER_18_77
*368 FILLER_18_83
*369 FILLER_18_85
*370 FILLER_18_97
*371 FILLER_19_10
*372 FILLER_19_105
*373 FILLER_19_111
*374 FILLER_19_113
*375 FILLER_19_125
*376 FILLER_19_137
*377 FILLER_19_149
*378 FILLER_19_161
*379 FILLER_19_167
*380 FILLER_19_169
*381 FILLER_19_181
*382 FILLER_19_193
*383 FILLER_19_205
*384 FILLER_19_217
*385 FILLER_19_223
*386 FILLER_19_225
*387 FILLER_19_237
*388 FILLER_19_249
*389 FILLER_19_261
*390 FILLER_19_273
*391 FILLER_19_279
*392 FILLER_19_281
*393 FILLER_19_293
*394 FILLER_19_3
*395 FILLER_19_34
*396 FILLER_19_41
*397 FILLER_19_53
*398 FILLER_19_57
*399 FILLER_19_69
*400 FILLER_19_81
*401 FILLER_19_93
*402 FILLER_1_105
*403 FILLER_1_111
*404 FILLER_1_113
*405 FILLER_1_125
*406 FILLER_1_137
*407 FILLER_1_149
*408 FILLER_1_15
*409 FILLER_1_161
*410 FILLER_1_167
*411 FILLER_1_169
*412 FILLER_1_181
*413 FILLER_1_193
*414 FILLER_1_205
*415 FILLER_1_217
*416 FILLER_1_223
*417 FILLER_1_225
*418 FILLER_1_237
*419 FILLER_1_249
*420 FILLER_1_261
*421 FILLER_1_27
*422 FILLER_1_273
*423 FILLER_1_279
*424 FILLER_1_281
*425 FILLER_1_293
*426 FILLER_1_3
*427 FILLER_1_39
*428 FILLER_1_51
*429 FILLER_1_55
*430 FILLER_1_57
*431 FILLER_1_69
*432 FILLER_1_81
*433 FILLER_1_93
*434 FILLER_20_109
*435 FILLER_20_121
*436 FILLER_20_133
*437 FILLER_20_139
*438 FILLER_20_141
*439 FILLER_20_153
*440 FILLER_20_165
*441 FILLER_20_177
*442 FILLER_20_189
*443 FILLER_20_195
*444 FILLER_20_197
*445 FILLER_20_209
*446 FILLER_20_22
*447 FILLER_20_221
*448 FILLER_20_233
*449 FILLER_20_245
*450 FILLER_20_251
*451 FILLER_20_253
*452 FILLER_20_265
*453 FILLER_20_277
*454 FILLER_20_289
*455 FILLER_20_29
*456 FILLER_20_297
*457 FILLER_20_3
*458 FILLER_20_41
*459 FILLER_20_53
*460 FILLER_20_65
*461 FILLER_20_77
*462 FILLER_20_83
*463 FILLER_20_85
*464 FILLER_20_97
*465 FILLER_21_105
*466 FILLER_21_111
*467 FILLER_21_113
*468 FILLER_21_125
*469 FILLER_21_137
*470 FILLER_21_149
*471 FILLER_21_15
*472 FILLER_21_161
*473 FILLER_21_167
*474 FILLER_21_169
*475 FILLER_21_181
*476 FILLER_21_193
*477 FILLER_21_205
*478 FILLER_21_217
*479 FILLER_21_223
*480 FILLER_21_225
*481 FILLER_21_237
*482 FILLER_21_249
*483 FILLER_21_261
*484 FILLER_21_273
*485 FILLER_21_279
*486 FILLER_21_281
*487 FILLER_21_293
*488 FILLER_21_3
*489 FILLER_21_36
*490 FILLER_21_48
*491 FILLER_21_57
*492 FILLER_21_69
*493 FILLER_21_81
*494 FILLER_21_93
*495 FILLER_22_109
*496 FILLER_22_121
*497 FILLER_22_133
*498 FILLER_22_139
*499 FILLER_22_141
*500 FILLER_22_153
*501 FILLER_22_165
*502 FILLER_22_177
*503 FILLER_22_189
*504 FILLER_22_195
*505 FILLER_22_197
*506 FILLER_22_209
*507 FILLER_22_221
*508 FILLER_22_233
*509 FILLER_22_245
*510 FILLER_22_25
*511 FILLER_22_251
*512 FILLER_22_253
*513 FILLER_22_265
*514 FILLER_22_277
*515 FILLER_22_289
*516 FILLER_22_29
*517 FILLER_22_297
*518 FILLER_22_3
*519 FILLER_22_39
*520 FILLER_22_51
*521 FILLER_22_63
*522 FILLER_22_75
*523 FILLER_22_83
*524 FILLER_22_85
*525 FILLER_22_97
*526 FILLER_23_105
*527 FILLER_23_11
*528 FILLER_23_111
*529 FILLER_23_113
*530 FILLER_23_125
*531 FILLER_23_137
*532 FILLER_23_149
*533 FILLER_23_161
*534 FILLER_23_167
*535 FILLER_23_169
*536 FILLER_23_181
*537 FILLER_23_193
*538 FILLER_23_205
*539 FILLER_23_217
*540 FILLER_23_223
*541 FILLER_23_225
*542 FILLER_23_237
*543 FILLER_23_249
*544 FILLER_23_261
*545 FILLER_23_273
*546 FILLER_23_279
*547 FILLER_23_281
*548 FILLER_23_293
*549 FILLER_23_3
*550 FILLER_23_33
*551 FILLER_23_44
*552 FILLER_23_57
*553 FILLER_23_69
*554 FILLER_23_81
*555 FILLER_23_93
*556 FILLER_24_109
*557 FILLER_24_121
*558 FILLER_24_133
*559 FILLER_24_139
*560 FILLER_24_141
*561 FILLER_24_153
*562 FILLER_24_165
*563 FILLER_24_177
*564 FILLER_24_18
*565 FILLER_24_189
*566 FILLER_24_195
*567 FILLER_24_197
*568 FILLER_24_209
*569 FILLER_24_221
*570 FILLER_24_233
*571 FILLER_24_245
*572 FILLER_24_251
*573 FILLER_24_253
*574 FILLER_24_26
*575 FILLER_24_265
*576 FILLER_24_277
*577 FILLER_24_289
*578 FILLER_24_29
*579 FILLER_24_297
*580 FILLER_24_3
*581 FILLER_24_38
*582 FILLER_24_48
*583 FILLER_24_57
*584 FILLER_24_69
*585 FILLER_24_81
*586 FILLER_24_85
*587 FILLER_24_97
*588 FILLER_25_105
*589 FILLER_25_111
*590 FILLER_25_113
*591 FILLER_25_125
*592 FILLER_25_137
*593 FILLER_25_149
*594 FILLER_25_161
*595 FILLER_25_167
*596 FILLER_25_169
*597 FILLER_25_18
*598 FILLER_25_181
*599 FILLER_25_193
*600 FILLER_25_205
*601 FILLER_25_217
*602 FILLER_25_223
*603 FILLER_25_225
*604 FILLER_25_237
*605 FILLER_25_249
*606 FILLER_25_261
*607 FILLER_25_273
*608 FILLER_25_279
*609 FILLER_25_281
*610 FILLER_25_293
*611 FILLER_25_3
*612 FILLER_25_32
*613 FILLER_25_43
*614 FILLER_25_55
*615 FILLER_25_57
*616 FILLER_25_69
*617 FILLER_25_81
*618 FILLER_25_93
*619 FILLER_26_109
*620 FILLER_26_121
*621 FILLER_26_133
*622 FILLER_26_139
*623 FILLER_26_141
*624 FILLER_26_153
*625 FILLER_26_165
*626 FILLER_26_177
*627 FILLER_26_189
*628 FILLER_26_195
*629 FILLER_26_197
*630 FILLER_26_209
*631 FILLER_26_221
*632 FILLER_26_233
*633 FILLER_26_245
*634 FILLER_26_251
*635 FILLER_26_253
*636 FILLER_26_26
*637 FILLER_26_265
*638 FILLER_26_277
*639 FILLER_26_289
*640 FILLER_26_29
*641 FILLER_26_297
*642 FILLER_26_3
*643 FILLER_26_38
*644 FILLER_26_50
*645 FILLER_26_62
*646 FILLER_26_74
*647 FILLER_26_82
*648 FILLER_26_85
*649 FILLER_26_97
*650 FILLER_27_105
*651 FILLER_27_111
*652 FILLER_27_113
*653 FILLER_27_125
*654 FILLER_27_137
*655 FILLER_27_149
*656 FILLER_27_161
*657 FILLER_27_167
*658 FILLER_27_169
*659 FILLER_27_181
*660 FILLER_27_193
*661 FILLER_27_205
*662 FILLER_27_217
*663 FILLER_27_223
*664 FILLER_27_225
*665 FILLER_27_237
*666 FILLER_27_249
*667 FILLER_27_25
*668 FILLER_27_261
*669 FILLER_27_273
*670 FILLER_27_279
*671 FILLER_27_281
*672 FILLER_27_293
*673 FILLER_27_3
*674 FILLER_27_34
*675 FILLER_27_46
*676 FILLER_27_54
*677 FILLER_27_57
*678 FILLER_27_69
*679 FILLER_27_81
*680 FILLER_27_93
*681 FILLER_28_109
*682 FILLER_28_121
*683 FILLER_28_133
*684 FILLER_28_139
*685 FILLER_28_141
*686 FILLER_28_153
*687 FILLER_28_165
*688 FILLER_28_177
*689 FILLER_28_189
*690 FILLER_28_195
*691 FILLER_28_197
*692 FILLER_28_209
*693 FILLER_28_221
*694 FILLER_28_233
*695 FILLER_28_245
*696 FILLER_28_25
*697 FILLER_28_251
*698 FILLER_28_253
*699 FILLER_28_265
*700 FILLER_28_277
*701 FILLER_28_289
*702 FILLER_28_29
*703 FILLER_28_297
*704 FILLER_28_3
*705 FILLER_28_41
*706 FILLER_28_53
*707 FILLER_28_65
*708 FILLER_28_77
*709 FILLER_28_83
*710 FILLER_28_85
*711 FILLER_28_97
*712 FILLER_29_105
*713 FILLER_29_111
*714 FILLER_29_113
*715 FILLER_29_125
*716 FILLER_29_137
*717 FILLER_29_149
*718 FILLER_29_15
*719 FILLER_29_161
*720 FILLER_29_167
*721 FILLER_29_169
*722 FILLER_29_181
*723 FILLER_29_193
*724 FILLER_29_205
*725 FILLER_29_217
*726 FILLER_29_223
*727 FILLER_29_225
*728 FILLER_29_237
*729 FILLER_29_249
*730 FILLER_29_261
*731 FILLER_29_27
*732 FILLER_29_273
*733 FILLER_29_279
*734 FILLER_29_281
*735 FILLER_29_293
*736 FILLER_29_3
*737 FILLER_29_39
*738 FILLER_29_51
*739 FILLER_29_55
*740 FILLER_29_57
*741 FILLER_29_69
*742 FILLER_29_81
*743 FILLER_29_93
*744 FILLER_2_109
*745 FILLER_2_121
*746 FILLER_2_133
*747 FILLER_2_139
*748 FILLER_2_141
*749 FILLER_2_15
*750 FILLER_2_153
*751 FILLER_2_165
*752 FILLER_2_177
*753 FILLER_2_189
*754 FILLER_2_195
*755 FILLER_2_197
*756 FILLER_2_209
*757 FILLER_2_221
*758 FILLER_2_233
*759 FILLER_2_245
*760 FILLER_2_251
*761 FILLER_2_253
*762 FILLER_2_265
*763 FILLER_2_27
*764 FILLER_2_277
*765 FILLER_2_289
*766 FILLER_2_29
*767 FILLER_2_297
*768 FILLER_2_3
*769 FILLER_2_41
*770 FILLER_2_53
*771 FILLER_2_65
*772 FILLER_2_77
*773 FILLER_2_83
*774 FILLER_2_85
*775 FILLER_2_97
*776 FILLER_30_109
*777 FILLER_30_121
*778 FILLER_30_133
*779 FILLER_30_139
*780 FILLER_30_141
*781 FILLER_30_153
*782 FILLER_30_165
*783 FILLER_30_17
*784 FILLER_30_177
*785 FILLER_30_189
*786 FILLER_30_195
*787 FILLER_30_197
*788 FILLER_30_209
*789 FILLER_30_221
*790 FILLER_30_233
*791 FILLER_30_245
*792 FILLER_30_25
*793 FILLER_30_251
*794 FILLER_30_253
*795 FILLER_30_265
*796 FILLER_30_277
*797 FILLER_30_289
*798 FILLER_30_29
*799 FILLER_30_297
*800 FILLER_30_3
*801 FILLER_30_41
*802 FILLER_30_53
*803 FILLER_30_65
*804 FILLER_30_77
*805 FILLER_30_83
*806 FILLER_30_85
*807 FILLER_30_9
*808 FILLER_30_97
*809 FILLER_31_105
*810 FILLER_31_111
*811 FILLER_31_113
*812 FILLER_31_125
*813 FILLER_31_137
*814 FILLER_31_149
*815 FILLER_31_161
*816 FILLER_31_167
*817 FILLER_31_169
*818 FILLER_31_181
*819 FILLER_31_193
*820 FILLER_31_205
*821 FILLER_31_21
*822 FILLER_31_217
*823 FILLER_31_223
*824 FILLER_31_225
*825 FILLER_31_237
*826 FILLER_31_249
*827 FILLER_31_261
*828 FILLER_31_273
*829 FILLER_31_279
*830 FILLER_31_281
*831 FILLER_31_293
*832 FILLER_31_3
*833 FILLER_31_33
*834 FILLER_31_45
*835 FILLER_31_53
*836 FILLER_31_57
*837 FILLER_31_69
*838 FILLER_31_81
*839 FILLER_31_9
*840 FILLER_31_93
*841 FILLER_32_109
*842 FILLER_32_121
*843 FILLER_32_133
*844 FILLER_32_139
*845 FILLER_32_141
*846 FILLER_32_153
*847 FILLER_32_165
*848 FILLER_32_177
*849 FILLER_32_189
*850 FILLER_32_195
*851 FILLER_32_197
*852 FILLER_32_209
*853 FILLER_32_21
*854 FILLER_32_221
*855 FILLER_32_233
*856 FILLER_32_245
*857 FILLER_32_251
*858 FILLER_32_253
*859 FILLER_32_265
*860 FILLER_32_27
*861 FILLER_32_277
*862 FILLER_32_289
*863 FILLER_32_29
*864 FILLER_32_297
*865 FILLER_32_3
*866 FILLER_32_41
*867 FILLER_32_53
*868 FILLER_32_65
*869 FILLER_32_77
*870 FILLER_32_83
*871 FILLER_32_85
*872 FILLER_32_9
*873 FILLER_32_97
*874 FILLER_33_105
*875 FILLER_33_111
*876 FILLER_33_113
*877 FILLER_33_125
*878 FILLER_33_137
*879 FILLER_33_149
*880 FILLER_33_15
*881 FILLER_33_161
*882 FILLER_33_167
*883 FILLER_33_169
*884 FILLER_33_181
*885 FILLER_33_193
*886 FILLER_33_205
*887 FILLER_33_217
*888 FILLER_33_223
*889 FILLER_33_225
*890 FILLER_33_237
*891 FILLER_33_249
*892 FILLER_33_261
*893 FILLER_33_27
*894 FILLER_33_273
*895 FILLER_33_279
*896 FILLER_33_281
*897 FILLER_33_293
*898 FILLER_33_3
*899 FILLER_33_39
*900 FILLER_33_51
*901 FILLER_33_55
*902 FILLER_33_57
*903 FILLER_33_69
*904 FILLER_33_81
*905 FILLER_33_93
*906 FILLER_34_109
*907 FILLER_34_121
*908 FILLER_34_133
*909 FILLER_34_139
*910 FILLER_34_141
*911 FILLER_34_15
*912 FILLER_34_153
*913 FILLER_34_165
*914 FILLER_34_177
*915 FILLER_34_189
*916 FILLER_34_195
*917 FILLER_34_197
*918 FILLER_34_209
*919 FILLER_34_221
*920 FILLER_34_233
*921 FILLER_34_245
*922 FILLER_34_251
*923 FILLER_34_253
*924 FILLER_34_265
*925 FILLER_34_27
*926 FILLER_34_277
*927 FILLER_34_289
*928 FILLER_34_29
*929 FILLER_34_297
*930 FILLER_34_3
*931 FILLER_34_41
*932 FILLER_34_53
*933 FILLER_34_65
*934 FILLER_34_77
*935 FILLER_34_83
*936 FILLER_34_85
*937 FILLER_34_97
*938 FILLER_35_105
*939 FILLER_35_111
*940 FILLER_35_113
*941 FILLER_35_125
*942 FILLER_35_137
*943 FILLER_35_149
*944 FILLER_35_15
*945 FILLER_35_161
*946 FILLER_35_167
*947 FILLER_35_169
*948 FILLER_35_181
*949 FILLER_35_193
*950 FILLER_35_205
*951 FILLER_35_217
*952 FILLER_35_223
*953 FILLER_35_225
*954 FILLER_35_237
*955 FILLER_35_249
*956 FILLER_35_261
*957 FILLER_35_27
*958 FILLER_35_273
*959 FILLER_35_279
*960 FILLER_35_281
*961 FILLER_35_293
*962 FILLER_35_3
*963 FILLER_35_39
*964 FILLER_35_51
*965 FILLER_35_55
*966 FILLER_35_57
*967 FILLER_35_69
*968 FILLER_35_81
*969 FILLER_35_93
*970 FILLER_36_109
*971 FILLER_36_121
*972 FILLER_36_133
*973 FILLER_36_139
*974 FILLER_36_141
*975 FILLER_36_15
*976 FILLER_36_153
*977 FILLER_36_165
*978 FILLER_36_177
*979 FILLER_36_189
*980 FILLER_36_195
*981 FILLER_36_197
*982 FILLER_36_209
*983 FILLER_36_221
*984 FILLER_36_233
*985 FILLER_36_245
*986 FILLER_36_251
*987 FILLER_36_253
*988 FILLER_36_265
*989 FILLER_36_27
*990 FILLER_36_277
*991 FILLER_36_289
*992 FILLER_36_29
*993 FILLER_36_297
*994 FILLER_36_3
*995 FILLER_36_41
*996 FILLER_36_53
*997 FILLER_36_65
*998 FILLER_36_77
*999 FILLER_36_83
*1000 FILLER_36_85
*1001 FILLER_36_97
*1002 FILLER_37_105
*1003 FILLER_37_111
*1004 FILLER_37_113
*1005 FILLER_37_125
*1006 FILLER_37_137
*1007 FILLER_37_149
*1008 FILLER_37_15
*1009 FILLER_37_161
*1010 FILLER_37_167
*1011 FILLER_37_169
*1012 FILLER_37_181
*1013 FILLER_37_193
*1014 FILLER_37_205
*1015 FILLER_37_217
*1016 FILLER_37_223
*1017 FILLER_37_225
*1018 FILLER_37_237
*1019 FILLER_37_249
*1020 FILLER_37_261
*1021 FILLER_37_27
*1022 FILLER_37_273
*1023 FILLER_37_279
*1024 FILLER_37_281
*1025 FILLER_37_293
*1026 FILLER_37_3
*1027 FILLER_37_39
*1028 FILLER_37_51
*1029 FILLER_37_55
*1030 FILLER_37_57
*1031 FILLER_37_69
*1032 FILLER_37_81
*1033 FILLER_37_93
*1034 FILLER_38_109
*1035 FILLER_38_121
*1036 FILLER_38_133
*1037 FILLER_38_139
*1038 FILLER_38_141
*1039 FILLER_38_15
*1040 FILLER_38_153
*1041 FILLER_38_165
*1042 FILLER_38_177
*1043 FILLER_38_189
*1044 FILLER_38_195
*1045 FILLER_38_197
*1046 FILLER_38_209
*1047 FILLER_38_221
*1048 FILLER_38_233
*1049 FILLER_38_245
*1050 FILLER_38_251
*1051 FILLER_38_253
*1052 FILLER_38_265
*1053 FILLER_38_27
*1054 FILLER_38_277
*1055 FILLER_38_289
*1056 FILLER_38_29
*1057 FILLER_38_297
*1058 FILLER_38_3
*1059 FILLER_38_41
*1060 FILLER_38_53
*1061 FILLER_38_65
*1062 FILLER_38_77
*1063 FILLER_38_83
*1064 FILLER_38_85
*1065 FILLER_38_97
*1066 FILLER_39_105
*1067 FILLER_39_111
*1068 FILLER_39_113
*1069 FILLER_39_125
*1070 FILLER_39_137
*1071 FILLER_39_149
*1072 FILLER_39_15
*1073 FILLER_39_161
*1074 FILLER_39_167
*1075 FILLER_39_169
*1076 FILLER_39_181
*1077 FILLER_39_193
*1078 FILLER_39_205
*1079 FILLER_39_217
*1080 FILLER_39_223
*1081 FILLER_39_225
*1082 FILLER_39_237
*1083 FILLER_39_249
*1084 FILLER_39_261
*1085 FILLER_39_27
*1086 FILLER_39_273
*1087 FILLER_39_279
*1088 FILLER_39_281
*1089 FILLER_39_293
*1090 FILLER_39_3
*1091 FILLER_39_39
*1092 FILLER_39_51
*1093 FILLER_39_55
*1094 FILLER_39_57
*1095 FILLER_39_69
*1096 FILLER_39_81
*1097 FILLER_39_93
*1098 FILLER_3_105
*1099 FILLER_3_111
*1100 FILLER_3_113
*1101 FILLER_3_125
*1102 FILLER_3_137
*1103 FILLER_3_149
*1104 FILLER_3_15
*1105 FILLER_3_161
*1106 FILLER_3_167
*1107 FILLER_3_169
*1108 FILLER_3_181
*1109 FILLER_3_193
*1110 FILLER_3_205
*1111 FILLER_3_217
*1112 FILLER_3_223
*1113 FILLER_3_225
*1114 FILLER_3_237
*1115 FILLER_3_249
*1116 FILLER_3_261
*1117 FILLER_3_27
*1118 FILLER_3_273
*1119 FILLER_3_279
*1120 FILLER_3_281
*1121 FILLER_3_293
*1122 FILLER_3_3
*1123 FILLER_3_39
*1124 FILLER_3_51
*1125 FILLER_3_55
*1126 FILLER_3_57
*1127 FILLER_3_69
*1128 FILLER_3_81
*1129 FILLER_3_93
*1130 FILLER_40_109
*1131 FILLER_40_121
*1132 FILLER_40_133
*1133 FILLER_40_139
*1134 FILLER_40_141
*1135 FILLER_40_15
*1136 FILLER_40_153
*1137 FILLER_40_165
*1138 FILLER_40_177
*1139 FILLER_40_189
*1140 FILLER_40_195
*1141 FILLER_40_197
*1142 FILLER_40_209
*1143 FILLER_40_221
*1144 FILLER_40_233
*1145 FILLER_40_245
*1146 FILLER_40_251
*1147 FILLER_40_253
*1148 FILLER_40_265
*1149 FILLER_40_27
*1150 FILLER_40_277
*1151 FILLER_40_289
*1152 FILLER_40_29
*1153 FILLER_40_297
*1154 FILLER_40_3
*1155 FILLER_40_41
*1156 FILLER_40_53
*1157 FILLER_40_65
*1158 FILLER_40_77
*1159 FILLER_40_83
*1160 FILLER_40_85
*1161 FILLER_40_97
*1162 FILLER_41_105
*1163 FILLER_41_111
*1164 FILLER_41_113
*1165 FILLER_41_125
*1166 FILLER_41_137
*1167 FILLER_41_149
*1168 FILLER_41_15
*1169 FILLER_41_161
*1170 FILLER_41_167
*1171 FILLER_41_169
*1172 FILLER_41_181
*1173 FILLER_41_193
*1174 FILLER_41_205
*1175 FILLER_41_217
*1176 FILLER_41_223
*1177 FILLER_41_225
*1178 FILLER_41_237
*1179 FILLER_41_249
*1180 FILLER_41_261
*1181 FILLER_41_27
*1182 FILLER_41_273
*1183 FILLER_41_279
*1184 FILLER_41_281
*1185 FILLER_41_293
*1186 FILLER_41_3
*1187 FILLER_41_39
*1188 FILLER_41_51
*1189 FILLER_41_55
*1190 FILLER_41_57
*1191 FILLER_41_69
*1192 FILLER_41_81
*1193 FILLER_41_93
*1194 FILLER_42_109
*1195 FILLER_42_121
*1196 FILLER_42_133
*1197 FILLER_42_139
*1198 FILLER_42_141
*1199 FILLER_42_15
*1200 FILLER_42_153
*1201 FILLER_42_165
*1202 FILLER_42_177
*1203 FILLER_42_189
*1204 FILLER_42_195
*1205 FILLER_42_197
*1206 FILLER_42_209
*1207 FILLER_42_221
*1208 FILLER_42_233
*1209 FILLER_42_245
*1210 FILLER_42_251
*1211 FILLER_42_253
*1212 FILLER_42_265
*1213 FILLER_42_27
*1214 FILLER_42_277
*1215 FILLER_42_289
*1216 FILLER_42_29
*1217 FILLER_42_297
*1218 FILLER_42_3
*1219 FILLER_42_41
*1220 FILLER_42_53
*1221 FILLER_42_65
*1222 FILLER_42_77
*1223 FILLER_42_83
*1224 FILLER_42_85
*1225 FILLER_42_97
*1226 FILLER_43_105
*1227 FILLER_43_111
*1228 FILLER_43_113
*1229 FILLER_43_125
*1230 FILLER_43_137
*1231 FILLER_43_149
*1232 FILLER_43_15
*1233 FILLER_43_161
*1234 FILLER_43_167
*1235 FILLER_43_169
*1236 FILLER_43_181
*1237 FILLER_43_193
*1238 FILLER_43_205
*1239 FILLER_43_217
*1240 FILLER_43_223
*1241 FILLER_43_225
*1242 FILLER_43_237
*1243 FILLER_43_249
*1244 FILLER_43_261
*1245 FILLER_43_27
*1246 FILLER_43_273
*1247 FILLER_43_279
*1248 FILLER_43_281
*1249 FILLER_43_293
*1250 FILLER_43_3
*1251 FILLER_43_39
*1252 FILLER_43_51
*1253 FILLER_43_55
*1254 FILLER_43_57
*1255 FILLER_43_69
*1256 FILLER_43_81
*1257 FILLER_43_93
*1258 FILLER_44_109
*1259 FILLER_44_121
*1260 FILLER_44_133
*1261 FILLER_44_139
*1262 FILLER_44_141
*1263 FILLER_44_15
*1264 FILLER_44_153
*1265 FILLER_44_165
*1266 FILLER_44_177
*1267 FILLER_44_189
*1268 FILLER_44_195
*1269 FILLER_44_197
*1270 FILLER_44_209
*1271 FILLER_44_221
*1272 FILLER_44_233
*1273 FILLER_44_245
*1274 FILLER_44_251
*1275 FILLER_44_253
*1276 FILLER_44_265
*1277 FILLER_44_27
*1278 FILLER_44_277
*1279 FILLER_44_289
*1280 FILLER_44_29
*1281 FILLER_44_297
*1282 FILLER_44_3
*1283 FILLER_44_41
*1284 FILLER_44_53
*1285 FILLER_44_65
*1286 FILLER_44_77
*1287 FILLER_44_83
*1288 FILLER_44_85
*1289 FILLER_44_97
*1290 FILLER_45_105
*1291 FILLER_45_111
*1292 FILLER_45_113
*1293 FILLER_45_125
*1294 FILLER_45_137
*1295 FILLER_45_149
*1296 FILLER_45_161
*1297 FILLER_45_167
*1298 FILLER_45_169
*1299 FILLER_45_181
*1300 FILLER_45_193
*1301 FILLER_45_20
*1302 FILLER_45_205
*1303 FILLER_45_217
*1304 FILLER_45_223
*1305 FILLER_45_225
*1306 FILLER_45_237
*1307 FILLER_45_249
*1308 FILLER_45_261
*1309 FILLER_45_273
*1310 FILLER_45_279
*1311 FILLER_45_281
*1312 FILLER_45_293
*1313 FILLER_45_3
*1314 FILLER_45_32
*1315 FILLER_45_44
*1316 FILLER_45_57
*1317 FILLER_45_69
*1318 FILLER_45_8
*1319 FILLER_45_81
*1320 FILLER_45_93
*1321 FILLER_46_109
*1322 FILLER_46_121
*1323 FILLER_46_133
*1324 FILLER_46_139
*1325 FILLER_46_141
*1326 FILLER_46_153
*1327 FILLER_46_165
*1328 FILLER_46_177
*1329 FILLER_46_189
*1330 FILLER_46_195
*1331 FILLER_46_197
*1332 FILLER_46_209
*1333 FILLER_46_21
*1334 FILLER_46_221
*1335 FILLER_46_233
*1336 FILLER_46_245
*1337 FILLER_46_251
*1338 FILLER_46_253
*1339 FILLER_46_265
*1340 FILLER_46_27
*1341 FILLER_46_277
*1342 FILLER_46_289
*1343 FILLER_46_29
*1344 FILLER_46_297
*1345 FILLER_46_3
*1346 FILLER_46_41
*1347 FILLER_46_53
*1348 FILLER_46_65
*1349 FILLER_46_77
*1350 FILLER_46_83
*1351 FILLER_46_85
*1352 FILLER_46_9
*1353 FILLER_46_97
*1354 FILLER_47_105
*1355 FILLER_47_111
*1356 FILLER_47_113
*1357 FILLER_47_125
*1358 FILLER_47_137
*1359 FILLER_47_149
*1360 FILLER_47_15
*1361 FILLER_47_161
*1362 FILLER_47_167
*1363 FILLER_47_169
*1364 FILLER_47_181
*1365 FILLER_47_193
*1366 FILLER_47_205
*1367 FILLER_47_217
*1368 FILLER_47_223
*1369 FILLER_47_225
*1370 FILLER_47_237
*1371 FILLER_47_249
*1372 FILLER_47_261
*1373 FILLER_47_27
*1374 FILLER_47_273
*1375 FILLER_47_279
*1376 FILLER_47_281
*1377 FILLER_47_293
*1378 FILLER_47_3
*1379 FILLER_47_39
*1380 FILLER_47_51
*1381 FILLER_47_55
*1382 FILLER_47_57
*1383 FILLER_47_69
*1384 FILLER_47_81
*1385 FILLER_47_93
*1386 FILLER_48_109
*1387 FILLER_48_121
*1388 FILLER_48_133
*1389 FILLER_48_139
*1390 FILLER_48_141
*1391 FILLER_48_15
*1392 FILLER_48_153
*1393 FILLER_48_165
*1394 FILLER_48_177
*1395 FILLER_48_189
*1396 FILLER_48_195
*1397 FILLER_48_197
*1398 FILLER_48_209
*1399 FILLER_48_221
*1400 FILLER_48_233
*1401 FILLER_48_245
*1402 FILLER_48_251
*1403 FILLER_48_253
*1404 FILLER_48_265
*1405 FILLER_48_27
*1406 FILLER_48_277
*1407 FILLER_48_289
*1408 FILLER_48_29
*1409 FILLER_48_297
*1410 FILLER_48_3
*1411 FILLER_48_41
*1412 FILLER_48_53
*1413 FILLER_48_65
*1414 FILLER_48_77
*1415 FILLER_48_83
*1416 FILLER_48_85
*1417 FILLER_48_97
*1418 FILLER_49_105
*1419 FILLER_49_111
*1420 FILLER_49_113
*1421 FILLER_49_125
*1422 FILLER_49_137
*1423 FILLER_49_149
*1424 FILLER_49_15
*1425 FILLER_49_161
*1426 FILLER_49_167
*1427 FILLER_49_169
*1428 FILLER_49_181
*1429 FILLER_49_193
*1430 FILLER_49_205
*1431 FILLER_49_217
*1432 FILLER_49_223
*1433 FILLER_49_225
*1434 FILLER_49_237
*1435 FILLER_49_249
*1436 FILLER_49_261
*1437 FILLER_49_27
*1438 FILLER_49_273
*1439 FILLER_49_279
*1440 FILLER_49_281
*1441 FILLER_49_293
*1442 FILLER_49_3
*1443 FILLER_49_39
*1444 FILLER_49_51
*1445 FILLER_49_55
*1446 FILLER_49_57
*1447 FILLER_49_69
*1448 FILLER_49_81
*1449 FILLER_49_93
*1450 FILLER_4_109
*1451 FILLER_4_121
*1452 FILLER_4_133
*1453 FILLER_4_139
*1454 FILLER_4_141
*1455 FILLER_4_15
*1456 FILLER_4_153
*1457 FILLER_4_165
*1458 FILLER_4_177
*1459 FILLER_4_189
*1460 FILLER_4_195
*1461 FILLER_4_197
*1462 FILLER_4_209
*1463 FILLER_4_221
*1464 FILLER_4_233
*1465 FILLER_4_245
*1466 FILLER_4_251
*1467 FILLER_4_253
*1468 FILLER_4_265
*1469 FILLER_4_27
*1470 FILLER_4_277
*1471 FILLER_4_289
*1472 FILLER_4_29
*1473 FILLER_4_297
*1474 FILLER_4_3
*1475 FILLER_4_41
*1476 FILLER_4_53
*1477 FILLER_4_65
*1478 FILLER_4_77
*1479 FILLER_4_83
*1480 FILLER_4_85
*1481 FILLER_4_97
*1482 FILLER_50_109
*1483 FILLER_50_121
*1484 FILLER_50_133
*1485 FILLER_50_139
*1486 FILLER_50_141
*1487 FILLER_50_153
*1488 FILLER_50_165
*1489 FILLER_50_177
*1490 FILLER_50_189
*1491 FILLER_50_195
*1492 FILLER_50_197
*1493 FILLER_50_20
*1494 FILLER_50_209
*1495 FILLER_50_221
*1496 FILLER_50_233
*1497 FILLER_50_245
*1498 FILLER_50_251
*1499 FILLER_50_253
*1500 FILLER_50_265
*1501 FILLER_50_277
*1502 FILLER_50_289
*1503 FILLER_50_29
*1504 FILLER_50_297
*1505 FILLER_50_3
*1506 FILLER_50_41
*1507 FILLER_50_53
*1508 FILLER_50_65
*1509 FILLER_50_77
*1510 FILLER_50_8
*1511 FILLER_50_83
*1512 FILLER_50_85
*1513 FILLER_50_97
*1514 FILLER_51_105
*1515 FILLER_51_111
*1516 FILLER_51_113
*1517 FILLER_51_125
*1518 FILLER_51_137
*1519 FILLER_51_149
*1520 FILLER_51_15
*1521 FILLER_51_161
*1522 FILLER_51_167
*1523 FILLER_51_169
*1524 FILLER_51_181
*1525 FILLER_51_193
*1526 FILLER_51_205
*1527 FILLER_51_217
*1528 FILLER_51_223
*1529 FILLER_51_225
*1530 FILLER_51_237
*1531 FILLER_51_249
*1532 FILLER_51_261
*1533 FILLER_51_27
*1534 FILLER_51_273
*1535 FILLER_51_279
*1536 FILLER_51_281
*1537 FILLER_51_293
*1538 FILLER_51_3
*1539 FILLER_51_39
*1540 FILLER_51_51
*1541 FILLER_51_55
*1542 FILLER_51_57
*1543 FILLER_51_69
*1544 FILLER_51_81
*1545 FILLER_51_93
*1546 FILLER_52_109
*1547 FILLER_52_121
*1548 FILLER_52_133
*1549 FILLER_52_139
*1550 FILLER_52_141
*1551 FILLER_52_15
*1552 FILLER_52_153
*1553 FILLER_52_165
*1554 FILLER_52_177
*1555 FILLER_52_189
*1556 FILLER_52_195
*1557 FILLER_52_197
*1558 FILLER_52_209
*1559 FILLER_52_221
*1560 FILLER_52_233
*1561 FILLER_52_245
*1562 FILLER_52_251
*1563 FILLER_52_253
*1564 FILLER_52_265
*1565 FILLER_52_27
*1566 FILLER_52_277
*1567 FILLER_52_289
*1568 FILLER_52_29
*1569 FILLER_52_297
*1570 FILLER_52_3
*1571 FILLER_52_41
*1572 FILLER_52_53
*1573 FILLER_52_65
*1574 FILLER_52_77
*1575 FILLER_52_83
*1576 FILLER_52_85
*1577 FILLER_52_97
*1578 FILLER_53_105
*1579 FILLER_53_111
*1580 FILLER_53_113
*1581 FILLER_53_125
*1582 FILLER_53_137
*1583 FILLER_53_149
*1584 FILLER_53_15
*1585 FILLER_53_161
*1586 FILLER_53_167
*1587 FILLER_53_169
*1588 FILLER_53_181