*SPEF "ieee 1481-1999"
*DESIGN "user_module_341164910646919762"
*DATE "11:11:11 Fri 11 11, 1111"
*VENDOR "OpenRCX"
*PROGRAM "Parallel Extraction"
*VERSION "1.0"
*DESIGN_FLOW "NAME_SCOPE LOCAL" "PIN_CAP NONE"
*DIVIDER /
*DELIMITER :
*BUS_DELIMITER []
*T_UNIT 1 NS
*C_UNIT 1 PF
*R_UNIT 1 OHM
*L_UNIT 1 HENRY

*NAME_MAP
*1 io_in[0]
*2 io_in[1]
*3 io_in[2]
*4 io_in[3]
*5 io_in[4]
*6 io_in[5]
*7 io_in[6]
*8 io_in[7]
*9 io_out[0]
*10 io_out[1]
*11 io_out[2]
*12 io_out[3]
*13 io_out[4]
*14 io_out[5]
*15 io_out[6]
*16 io_out[7]
*19 _000_
*20 _001_
*21 _002_
*22 _003_
*23 _004_
*24 _005_
*25 _006_
*26 _007_
*27 _008_
*28 _009_
*29 _010_
*30 _011_
*31 _012_
*32 _013_
*33 _014_
*34 _015_
*35 _016_
*36 _017_
*37 _018_
*38 _019_
*39 _020_
*40 _021_
*41 _022_
*42 _023_
*43 _024_
*44 _025_
*45 _026_
*46 _027_
*47 _028_
*48 _029_
*49 _030_
*50 _031_
*51 _032_
*52 _033_
*53 _034_
*54 _035_
*55 _036_
*56 _037_
*57 _038_
*58 _039_
*59 _040_
*60 _041_
*61 _042_
*62 _043_
*63 _044_
*64 _045_
*65 _046_
*66 _047_
*67 _048_
*68 _049_
*69 _050_
*70 _051_
*71 _052_
*72 _053_
*73 _054_
*74 clknet_0_fibonacci_inst\.clk
*75 clknet_0_io_in[0]
*76 clknet_1_0__leaf_io_in[0]
*77 clknet_1_1__leaf_io_in[0]
*78 clknet_3_0__leaf_fibonacci_inst\.clk
*79 clknet_3_1__leaf_fibonacci_inst\.clk
*80 clknet_3_2__leaf_fibonacci_inst\.clk
*81 clknet_3_3__leaf_fibonacci_inst\.clk
*82 clknet_3_4__leaf_fibonacci_inst\.clk
*83 clknet_3_5__leaf_fibonacci_inst\.clk
*84 clknet_3_6__leaf_fibonacci_inst\.clk
*85 clknet_3_7__leaf_fibonacci_inst\.clk
*86 fibonacci_inst\.clk
*87 fibonacci_inst\.digit\[0\]
*88 fibonacci_inst\.digit\[1\]
*89 fibonacci_inst\.digit\[2\]
*90 fibonacci_inst\.digit\[3\]
*91 fibonacci_inst\.fib\.a\[10\]
*92 fibonacci_inst\.fib\.a\[11\]
*93 fibonacci_inst\.fib\.a\[12\]
*94 fibonacci_inst\.fib\.a\[13\]
*95 fibonacci_inst\.fib\.a\[14\]
*96 fibonacci_inst\.fib\.a\[15\]
*97 fibonacci_inst\.fib\.a\[16\]
*98 fibonacci_inst\.fib\.a\[17\]
*99 fibonacci_inst\.fib\.a\[18\]
*100 fibonacci_inst\.fib\.a\[19\]
*101 fibonacci_inst\.fib\.a\[20\]
*102 fibonacci_inst\.fib\.a\[21\]
*103 fibonacci_inst\.fib\.a\[22\]
*104 fibonacci_inst\.fib\.a\[23\]
*105 fibonacci_inst\.fib\.a\[24\]
*106 fibonacci_inst\.fib\.a\[25\]
*107 fibonacci_inst\.fib\.a\[26\]
*108 fibonacci_inst\.fib\.a\[27\]
*109 fibonacci_inst\.fib\.a\[4\]
*110 fibonacci_inst\.fib\.a\[5\]
*111 fibonacci_inst\.fib\.a\[6\]
*112 fibonacci_inst\.fib\.a\[7\]
*113 fibonacci_inst\.fib\.a\[8\]
*114 fibonacci_inst\.fib\.a\[9\]
*115 fibonacci_inst\.fib\.adder\.adder_cin\[0\]
*116 fibonacci_inst\.fib\.adder\.adder_cin\[1\]
*117 fibonacci_inst\.fib\.adder\.adder_cin\[2\]
*118 fibonacci_inst\.fib\.adder\.adder_cin\[3\]
*119 fibonacci_inst\.fib\.adder\.b\[0\]
*120 fibonacci_inst\.fib\.adder\.b\[1\]
*121 fibonacci_inst\.fib\.adder\.b\[2\]
*122 fibonacci_inst\.fib\.adder\.b\[3\]
*123 fibonacci_inst\.fib\.adder\.cout
*124 fibonacci_inst\.fib\.adder\.sum\[0\]
*125 fibonacci_inst\.fib\.adder\.sum\[1\]
*126 fibonacci_inst\.fib\.adder\.sum\[2\]
*127 fibonacci_inst\.fib\.adder\.sum\[3\]
*128 fibonacci_inst\.fib\.b\[10\]
*129 fibonacci_inst\.fib\.b\[11\]
*130 fibonacci_inst\.fib\.b\[12\]
*131 fibonacci_inst\.fib\.b\[13\]
*132 fibonacci_inst\.fib\.b\[14\]
*133 fibonacci_inst\.fib\.b\[15\]
*134 fibonacci_inst\.fib\.b\[16\]
*135 fibonacci_inst\.fib\.b\[17\]
*136 fibonacci_inst\.fib\.b\[18\]
*137 fibonacci_inst\.fib\.b\[19\]
*138 fibonacci_inst\.fib\.b\[20\]
*139 fibonacci_inst\.fib\.b\[21\]
*140 fibonacci_inst\.fib\.b\[22\]
*141 fibonacci_inst\.fib\.b\[23\]
*142 fibonacci_inst\.fib\.b\[24\]
*143 fibonacci_inst\.fib\.b\[25\]
*144 fibonacci_inst\.fib\.b\[26\]
*145 fibonacci_inst\.fib\.b\[27\]
*146 fibonacci_inst\.fib\.b\[4\]
*147 fibonacci_inst\.fib\.b\[5\]
*148 fibonacci_inst\.fib\.b\[6\]
*149 fibonacci_inst\.fib\.b\[7\]
*150 fibonacci_inst\.fib\.b\[8\]
*151 fibonacci_inst\.fib\.b\[9\]
*152 fibonacci_inst\.fib\.lsb_control\[0\]
*153 fibonacci_inst\.fib\.lsb_control\[1\]
*154 fibonacci_inst\.fib\.lsb_control\[2\]
*155 fibonacci_inst\.fib\.lsb_control\[3\]
*156 fibonacci_inst\.fib\.lsb_control\[4\]
*157 fibonacci_inst\.fib\.lsb_control\[5\]
*158 fibonacci_inst\.fib\.lsb_control\[6\]
*159 fibonacci_inst\.fib\.rstn
*160 gold_code_generator\.a\[0\]
*161 gold_code_generator\.a\[10\]
*162 gold_code_generator\.a\[11\]
*163 gold_code_generator\.a\[12\]
*164 gold_code_generator\.a\[1\]
*165 gold_code_generator\.a\[2\]
*166 gold_code_generator\.a\[3\]
*167 gold_code_generator\.a\[4\]
*168 gold_code_generator\.a\[5\]
*169 gold_code_generator\.a\[6\]
*170 gold_code_generator\.a\[7\]
*171 gold_code_generator\.a\[8\]
*172 gold_code_generator\.a\[9\]
*173 gold_code_generator\.b\[0\]
*174 gold_code_generator\.b\[10\]
*175 gold_code_generator\.b\[11\]
*176 gold_code_generator\.b\[12\]
*177 gold_code_generator\.b\[1\]
*178 gold_code_generator\.b\[2\]
*179 gold_code_generator\.b\[3\]
*180 gold_code_generator\.b\[4\]
*181 gold_code_generator\.b\[5\]
*182 gold_code_generator\.b\[6\]
*183 gold_code_generator\.b\[7\]
*184 gold_code_generator\.b\[8\]
*185 gold_code_generator\.b\[9\]
*186 net1
*187 net10
*188 net11
*189 net12
*190 net13
*191 net14
*192 net15
*193 net16
*194 net17
*195 net18
*196 net19
*197 net2
*198 net20
*199 net21
*200 net22
*201 net23
*202 net24
*203 net25
*204 net26
*205 net27
*206 net28
*207 net29
*208 net3
*209 net30
*210 net31
*211 net32
*212 net33
*213 net34
*214 net35
*215 net36
*216 net37
*217 net38
*218 net39
*219 net4
*220 net40
*221 net41
*222 net42
*223 net43
*224 net44
*225 net45
*226 net46
*227 net47
*228 net48
*229 net49
*230 net5
*231 net50
*232 net51
*233 net52
*234 net53
*235 net54
*236 net55
*237 net56
*238 net57
*239 net58
*240 net59
*241 net6
*242 net60
*243 net61
*244 net62
*245 net63
*246 net64
*247 net65
*248 net66
*249 net67
*250 net68
*251 net69
*252 net7
*253 net70
*254 net71
*255 net72
*256 net73
*257 net74
*258 net75
*259 net76
*260 net77
*261 net78
*262 net79
*263 net8
*264 net80
*265 net81
*266 net82
*267 net9
*268 FILLER_0_109
*269 FILLER_0_113
*270 FILLER_0_125
*271 FILLER_0_137
*272 FILLER_0_141
*273 FILLER_0_15
*274 FILLER_0_153
*275 FILLER_0_165
*276 FILLER_0_169
*277 FILLER_0_181
*278 FILLER_0_193
*279 FILLER_0_197
*280 FILLER_0_209
*281 FILLER_0_221
*282 FILLER_0_225
*283 FILLER_0_237
*284 FILLER_0_249
*285 FILLER_0_253
*286 FILLER_0_265
*287 FILLER_0_27
*288 FILLER_0_277
*289 FILLER_0_281
*290 FILLER_0_29
*291 FILLER_0_293
*292 FILLER_0_3
*293 FILLER_0_39
*294 FILLER_0_51
*295 FILLER_0_55
*296 FILLER_0_57
*297 FILLER_0_69
*298 FILLER_0_81
*299 FILLER_0_85
*300 FILLER_0_97
*301 FILLER_10_109
*302 FILLER_10_121
*303 FILLER_10_133
*304 FILLER_10_139
*305 FILLER_10_141
*306 FILLER_10_153
*307 FILLER_10_165
*308 FILLER_10_177
*309 FILLER_10_18
*310 FILLER_10_189
*311 FILLER_10_195
*312 FILLER_10_197
*313 FILLER_10_209
*314 FILLER_10_221
*315 FILLER_10_233
*316 FILLER_10_245
*317 FILLER_10_25
*318 FILLER_10_251
*319 FILLER_10_253
*320 FILLER_10_265
*321 FILLER_10_277
*322 FILLER_10_289
*323 FILLER_10_29
*324 FILLER_10_297
*325 FILLER_10_3
*326 FILLER_10_39
*327 FILLER_10_50
*328 FILLER_10_60
*329 FILLER_10_72
*330 FILLER_10_85
*331 FILLER_10_97
*332 FILLER_11_105
*333 FILLER_11_111
*334 FILLER_11_113
*335 FILLER_11_12
*336 FILLER_11_125
*337 FILLER_11_137
*338 FILLER_11_149
*339 FILLER_11_161
*340 FILLER_11_167
*341 FILLER_11_169
*342 FILLER_11_181
*343 FILLER_11_193
*344 FILLER_11_205
*345 FILLER_11_217
*346 FILLER_11_223
*347 FILLER_11_225
*348 FILLER_11_237
*349 FILLER_11_249
*350 FILLER_11_261
*351 FILLER_11_273
*352 FILLER_11_279
*353 FILLER_11_281
*354 FILLER_11_293
*355 FILLER_11_3
*356 FILLER_11_36
*357 FILLER_11_46
*358 FILLER_11_53
*359 FILLER_11_57
*360 FILLER_11_69
*361 FILLER_11_81
*362 FILLER_11_93
*363 FILLER_12_109
*364 FILLER_12_121
*365 FILLER_12_133
*366 FILLER_12_139
*367 FILLER_12_141
*368 FILLER_12_153
*369 FILLER_12_165
*370 FILLER_12_177
*371 FILLER_12_189
*372 FILLER_12_195
*373 FILLER_12_197
*374 FILLER_12_209
*375 FILLER_12_22
*376 FILLER_12_221
*377 FILLER_12_233
*378 FILLER_12_245
*379 FILLER_12_251
*380 FILLER_12_253
*381 FILLER_12_265
*382 FILLER_12_277
*383 FILLER_12_289
*384 FILLER_12_29
*385 FILLER_12_297
*386 FILLER_12_3
*387 FILLER_12_52
*388 FILLER_12_59
*389 FILLER_12_71
*390 FILLER_12_83
*391 FILLER_12_85
*392 FILLER_12_97
*393 FILLER_13_110
*394 FILLER_13_113
*395 FILLER_13_125
*396 FILLER_13_137
*397 FILLER_13_149
*398 FILLER_13_161
*399 FILLER_13_167
*400 FILLER_13_169
*401 FILLER_13_181
*402 FILLER_13_193
*403 FILLER_13_205
*404 FILLER_13_217
*405 FILLER_13_223
*406 FILLER_13_225
*407 FILLER_13_23
*408 FILLER_13_237
*409 FILLER_13_249
*410 FILLER_13_261
*411 FILLER_13_273
*412 FILLER_13_279
*413 FILLER_13_281
*414 FILLER_13_293
*415 FILLER_13_3
*416 FILLER_13_30
*417 FILLER_13_54
*418 FILLER_13_57
*419 FILLER_13_62
*420 FILLER_13_74
*421 FILLER_13_86
*422 FILLER_13_98
*423 FILLER_14_109
*424 FILLER_14_121
*425 FILLER_14_133
*426 FILLER_14_139
*427 FILLER_14_141
*428 FILLER_14_153
*429 FILLER_14_165
*430 FILLER_14_177
*431 FILLER_14_18
*432 FILLER_14_189
*433 FILLER_14_195
*434 FILLER_14_197
*435 FILLER_14_209
*436 FILLER_14_221
*437 FILLER_14_233
*438 FILLER_14_245
*439 FILLER_14_251
*440 FILLER_14_253
*441 FILLER_14_26
*442 FILLER_14_265
*443 FILLER_14_277
*444 FILLER_14_289
*445 FILLER_14_29
*446 FILLER_14_297
*447 FILLER_14_3
*448 FILLER_14_34
*449 FILLER_14_38
*450 FILLER_14_59
*451 FILLER_14_71
*452 FILLER_14_83
*453 FILLER_14_85
*454 FILLER_14_97
*455 FILLER_15_105
*456 FILLER_15_111
*457 FILLER_15_113
*458 FILLER_15_125
*459 FILLER_15_137
*460 FILLER_15_149
*461 FILLER_15_161
*462 FILLER_15_167
*463 FILLER_15_169
*464 FILLER_15_181
*465 FILLER_15_193
*466 FILLER_15_205
*467 FILLER_15_217
*468 FILLER_15_22
*469 FILLER_15_223
*470 FILLER_15_225
*471 FILLER_15_237
*472 FILLER_15_249
*473 FILLER_15_261
*474 FILLER_15_273
*475 FILLER_15_279
*476 FILLER_15_281
*477 FILLER_15_29
*478 FILLER_15_293
*479 FILLER_15_3
*480 FILLER_15_54
*481 FILLER_15_57
*482 FILLER_15_69
*483 FILLER_15_81
*484 FILLER_15_93
*485 FILLER_16_109
*486 FILLER_16_121
*487 FILLER_16_133
*488 FILLER_16_139
*489 FILLER_16_141
*490 FILLER_16_153
*491 FILLER_16_165
*492 FILLER_16_177
*493 FILLER_16_18
*494 FILLER_16_189
*495 FILLER_16_195
*496 FILLER_16_197
*497 FILLER_16_209
*498 FILLER_16_221
*499 FILLER_16_233
*500 FILLER_16_245
*501 FILLER_16_25
*502 FILLER_16_251
*503 FILLER_16_253
*504 FILLER_16_265
*505 FILLER_16_277
*506 FILLER_16_289
*507 FILLER_16_29
*508 FILLER_16_297
*509 FILLER_16_3
*510 FILLER_16_57
*511 FILLER_16_68
*512 FILLER_16_80
*513 FILLER_16_85
*514 FILLER_16_97
*515 FILLER_17_102
*516 FILLER_17_110
*517 FILLER_17_113
*518 FILLER_17_125
*519 FILLER_17_137
*520 FILLER_17_149
*521 FILLER_17_161
*522 FILLER_17_167
*523 FILLER_17_169
*524 FILLER_17_181
*525 FILLER_17_193
*526 FILLER_17_205
*527 FILLER_17_217
*528 FILLER_17_223
*529 FILLER_17_225
*530 FILLER_17_237
*531 FILLER_17_249
*532 FILLER_17_25
*533 FILLER_17_261
*534 FILLER_17_273
*535 FILLER_17_279
*536 FILLER_17_281
*537 FILLER_17_293
*538 FILLER_17_3
*539 FILLER_17_32
*540 FILLER_17_44
*541 FILLER_17_53
*542 FILLER_17_57
*543 FILLER_17_66
*544 FILLER_17_78
*545 FILLER_17_90
*546 FILLER_18_109
*547 FILLER_18_121
*548 FILLER_18_133
*549 FILLER_18_139
*550 FILLER_18_141
*551 FILLER_18_153
*552 FILLER_18_165
*553 FILLER_18_177
*554 FILLER_18_189
*555 FILLER_18_195
*556 FILLER_18_197
*557 FILLER_18_209
*558 FILLER_18_221
*559 FILLER_18_233
*560 FILLER_18_24
*561 FILLER_18_245
*562 FILLER_18_251
*563 FILLER_18_253
*564 FILLER_18_265
*565 FILLER_18_277
*566 FILLER_18_289
*567 FILLER_18_29
*568 FILLER_18_297
*569 FILLER_18_3
*570 FILLER_18_57
*571 FILLER_18_68
*572 FILLER_18_7
*573 FILLER_18_80
*574 FILLER_18_85
*575 FILLER_18_97
*576 FILLER_19_103
*577 FILLER_19_111
*578 FILLER_19_113
*579 FILLER_19_125
*580 FILLER_19_137
*581 FILLER_19_149
*582 FILLER_19_161
*583 FILLER_19_167
*584 FILLER_19_169
*585 FILLER_19_181
*586 FILLER_19_193
*587 FILLER_19_205
*588 FILLER_19_217
*589 FILLER_19_223
*590 FILLER_19_225
*591 FILLER_19_237
*592 FILLER_19_249
*593 FILLER_19_25
*594 FILLER_19_261
*595 FILLER_19_273
*596 FILLER_19_279
*597 FILLER_19_281
*598 FILLER_19_293
*599 FILLER_19_3
*600 FILLER_19_33
*601 FILLER_19_54
*602 FILLER_19_57
*603 FILLER_19_67
*604 FILLER_19_79
*605 FILLER_19_91
*606 FILLER_1_105
*607 FILLER_1_111
*608 FILLER_1_113
*609 FILLER_1_125
*610 FILLER_1_137
*611 FILLER_1_149
*612 FILLER_1_15
*613 FILLER_1_161
*614 FILLER_1_167
*615 FILLER_1_169
*616 FILLER_1_181
*617 FILLER_1_193
*618 FILLER_1_205
*619 FILLER_1_217
*620 FILLER_1_223
*621 FILLER_1_225
*622 FILLER_1_237
*623 FILLER_1_249
*624 FILLER_1_261
*625 FILLER_1_27
*626 FILLER_1_273
*627 FILLER_1_279
*628 FILLER_1_281
*629 FILLER_1_293
*630 FILLER_1_3
*631 FILLER_1_48
*632 FILLER_1_57
*633 FILLER_1_69
*634 FILLER_1_81
*635 FILLER_1_93
*636 FILLER_20_109
*637 FILLER_20_121
*638 FILLER_20_133
*639 FILLER_20_139
*640 FILLER_20_141
*641 FILLER_20_153
*642 FILLER_20_165
*643 FILLER_20_177
*644 FILLER_20_189
*645 FILLER_20_195
*646 FILLER_20_197
*647 FILLER_20_209
*648 FILLER_20_221
*649 FILLER_20_233
*650 FILLER_20_245
*651 FILLER_20_251
*652 FILLER_20_253
*653 FILLER_20_26
*654 FILLER_20_265
*655 FILLER_20_277
*656 FILLER_20_289
*657 FILLER_20_29
*658 FILLER_20_297
*659 FILLER_20_3
*660 FILLER_20_39
*661 FILLER_20_67
*662 FILLER_20_78
*663 FILLER_20_85
*664 FILLER_20_97
*665 FILLER_21_105
*666 FILLER_21_111
*667 FILLER_21_113
*668 FILLER_21_12
*669 FILLER_21_125
*670 FILLER_21_137
*671 FILLER_21_149
*672 FILLER_21_161
*673 FILLER_21_167
*674 FILLER_21_169
*675 FILLER_21_181
*676 FILLER_21_193
*677 FILLER_21_205
*678 FILLER_21_217
*679 FILLER_21_223
*680 FILLER_21_225
*681 FILLER_21_237
*682 FILLER_21_249
*683 FILLER_21_261
*684 FILLER_21_273
*685 FILLER_21_279
*686 FILLER_21_281
*687 FILLER_21_293
*688 FILLER_21_3
*689 FILLER_21_36
*690 FILLER_21_44
*691 FILLER_21_54
*692 FILLER_21_57
*693 FILLER_21_67
*694 FILLER_21_93
*695 FILLER_22_105
*696 FILLER_22_117
*697 FILLER_22_129
*698 FILLER_22_137
*699 FILLER_22_141
*700 FILLER_22_153
*701 FILLER_22_165
*702 FILLER_22_177
*703 FILLER_22_189
*704 FILLER_22_195
*705 FILLER_22_197
*706 FILLER_22_20
*707 FILLER_22_209
*708 FILLER_22_221
*709 FILLER_22_233
*710 FILLER_22_245
*711 FILLER_22_251
*712 FILLER_22_253
*713 FILLER_22_265
*714 FILLER_22_277
*715 FILLER_22_289
*716 FILLER_22_29
*717 FILLER_22_297
*718 FILLER_22_3
*719 FILLER_22_34
*720 FILLER_22_46
*721 FILLER_22_50
*722 FILLER_22_71
*723 FILLER_22_81
*724 FILLER_22_85
*725 FILLER_22_95
*726 FILLER_23_106
*727 FILLER_23_113
*728 FILLER_23_125
*729 FILLER_23_137
*730 FILLER_23_149
*731 FILLER_23_161
*732 FILLER_23_167
*733 FILLER_23_169
*734 FILLER_23_18
*735 FILLER_23_181
*736 FILLER_23_193
*737 FILLER_23_205
*738 FILLER_23_217
*739 FILLER_23_223
*740 FILLER_23_225
*741 FILLER_23_237
*742 FILLER_23_249
*743 FILLER_23_261
*744 FILLER_23_273
*745 FILLER_23_279
*746 FILLER_23_281
*747 FILLER_23_293
*748 FILLER_23_3
*749 FILLER_23_30
*750 FILLER_23_54
*751 FILLER_23_57
*752 FILLER_23_61
*753 FILLER_23_70
*754 FILLER_23_94
*755 FILLER_24_107
*756 FILLER_24_119
*757 FILLER_24_131
*758 FILLER_24_139
*759 FILLER_24_141
*760 FILLER_24_153
*761 FILLER_24_165
*762 FILLER_24_177
*763 FILLER_24_189
*764 FILLER_24_195
*765 FILLER_24_197
*766 FILLER_24_209
*767 FILLER_24_221
*768 FILLER_24_233
*769 FILLER_24_245
*770 FILLER_24_251
*771 FILLER_24_253
*772 FILLER_24_26
*773 FILLER_24_265
*774 FILLER_24_277
*775 FILLER_24_289
*776 FILLER_24_29
*777 FILLER_24_297
*778 FILLER_24_3
*779 FILLER_24_34
*780 FILLER_24_58
*781 FILLER_24_82
*782 FILLER_24_85
*783 FILLER_25_100
*784 FILLER_25_113
*785 FILLER_25_125
*786 FILLER_25_137
*787 FILLER_25_149
*788 FILLER_25_161
*789 FILLER_25_167
*790 FILLER_25_169
*791 FILLER_25_181
*792 FILLER_25_193
*793 FILLER_25_205
*794 FILLER_25_217
*795 FILLER_25_223
*796 FILLER_25_225
*797 FILLER_25_237
*798 FILLER_25_249
*799 FILLER_25_261
*800 FILLER_25_273
*801 FILLER_25_279
*802 FILLER_25_281
*803 FILLER_25_293
*804 FILLER_25_3
*805 FILLER_25_30
*806 FILLER_25_54
*807 FILLER_25_57
*808 FILLER_25_63
*809 FILLER_25_75
*810 FILLER_25_9
*811 FILLER_26_107
*812 FILLER_26_119
*813 FILLER_26_131
*814 FILLER_26_139
*815 FILLER_26_141
*816 FILLER_26_153
*817 FILLER_26_165
*818 FILLER_26_177
*819 FILLER_26_189
*820 FILLER_26_195
*821 FILLER_26_197
*822 FILLER_26_209
*823 FILLER_26_221
*824 FILLER_26_233
*825 FILLER_26_245
*826 FILLER_26_251
*827 FILLER_26_253
*828 FILLER_26_26
*829 FILLER_26_265
*830 FILLER_26_277
*831 FILLER_26_289
*832 FILLER_26_29
*833 FILLER_26_297
*834 FILLER_26_3
*835 FILLER_26_34
*836 FILLER_26_58
*837 FILLER_26_82
*838 FILLER_26_85
*839 FILLER_27_103
*840 FILLER_27_111
*841 FILLER_27_113
*842 FILLER_27_125
*843 FILLER_27_137
*844 FILLER_27_149
*845 FILLER_27_161
*846 FILLER_27_167
*847 FILLER_27_169
*848 FILLER_27_181
*849 FILLER_27_193
*850 FILLER_27_205
*851 FILLER_27_217
*852 FILLER_27_223
*853 FILLER_27_225
*854 FILLER_27_237
*855 FILLER_27_249
*856 FILLER_27_261
*857 FILLER_27_273
*858 FILLER_27_279
*859 FILLER_27_281
*860 FILLER_27_29
*861 FILLER_27_293
*862 FILLER_27_3
*863 FILLER_27_33
*864 FILLER_27_54
*865 FILLER_27_57
*866 FILLER_27_67
*867 FILLER_27_91
*868 FILLER_28_107
*869 FILLER_28_119
*870 FILLER_28_131
*871 FILLER_28_139
*872 FILLER_28_141
*873 FILLER_28_153
*874 FILLER_28_165
*875 FILLER_28_177
*876 FILLER_28_189
*877 FILLER_28_195
*878 FILLER_28_197
*879 FILLER_28_209
*880 FILLER_28_221
*881 FILLER_28_233
*882 FILLER_28_245
*883 FILLER_28_251
*884 FILLER_28_253
*885 FILLER_28_26
*886 FILLER_28_265
*887 FILLER_28_277
*888 FILLER_28_289
*889 FILLER_28_29
*890 FILLER_28_297
*891 FILLER_28_3
*892 FILLER_28_51
*893 FILLER_28_55
*894 FILLER_28_64
*895 FILLER_28_76
*896 FILLER_28_85
*897 FILLER_29_105
*898 FILLER_29_111
*899 FILLER_29_113
*900 FILLER_29_125
*901 FILLER_29_137
*902 FILLER_29_149
*903 FILLER_29_161
*904 FILLER_29_167
*905 FILLER_29_169
*906 FILLER_29_181
*907 FILLER_29_193
*908 FILLER_29_205
*909 FILLER_29_217
*910 FILLER_29_223
*911 FILLER_29_225
*912 FILLER_29_237
*913 FILLER_29_249
*914 FILLER_29_26
*915 FILLER_29_261
*916 FILLER_29_273
*917 FILLER_29_279
*918 FILLER_29_281
*919 FILLER_29_293
*920 FILLER_29_3
*921 FILLER_29_34
*922 FILLER_29_44
*923 FILLER_29_52
*924 FILLER_29_57
*925 FILLER_29_67
*926 FILLER_29_93
*927 FILLER_2_109
*928 FILLER_2_121
*929 FILLER_2_133
*930 FILLER_2_139
*931 FILLER_2_141
*932 FILLER_2_153
*933 FILLER_2_165
*934 FILLER_2_177
*935 FILLER_2_189
*936 FILLER_2_195
*937 FILLER_2_197
*938 FILLER_2_209
*939 FILLER_2_221
*940 FILLER_2_233
*941 FILLER_2_245
*942 FILLER_2_251
*943 FILLER_2_253
*944 FILLER_2_26
*945 FILLER_2_265
*946 FILLER_2_277
*947 FILLER_2_289
*948 FILLER_2_29
*949 FILLER_2_297
*950 FILLER_2_3
*951 FILLER_2_51
*952 FILLER_2_63
*953 FILLER_2_75
*954 FILLER_2_83
*955 FILLER_2_85
*956 FILLER_2_97
*957 FILLER_30_107
*958 FILLER_30_119
*959 FILLER_30_131
*960 FILLER_30_139
*961 FILLER_30_141
*962 FILLER_30_153
*963 FILLER_30_165
*964 FILLER_30_177
*965 FILLER_30_189
*966 FILLER_30_195
*967 FILLER_30_197
*968 FILLER_30_209
*969 FILLER_30_221
*970 FILLER_30_233
*971 FILLER_30_245
*972 FILLER_30_251
*973 FILLER_30_253
*974 FILLER_30_26
*975 FILLER_30_265
*976 FILLER_30_277
*977 FILLER_30_289
*978 FILLER_30_29
*979 FILLER_30_297
*980 FILLER_30_3
*981 FILLER_30_37
*982 FILLER_30_41
*983 FILLER_30_58
*984 FILLER_30_82
*985 FILLER_30_85
*986 FILLER_30_95
*987 FILLER_31_110
*988 FILLER_31_113
*989 FILLER_31_125
*990 FILLER_31_137
*991 FILLER_31_149
*992 FILLER_31_161
*993 FILLER_31_167
*994 FILLER_31_169
*995 FILLER_31_181
*996 FILLER_31_193
*997 FILLER_31_205
*998 FILLER_31_217
*999 FILLER_31_223
*1000 FILLER_31_225
*1001 FILLER_31_237
*1002 FILLER_31_249
*1003 FILLER_31_261
*1004 FILLER_31_273
*1005 FILLER_31_279
*1006 FILLER_31_281
*1007 FILLER_31_293
*1008 FILLER_31_3
*1009 FILLER_31_30
*1010 FILLER_31_54
*1011 FILLER_31_57
*1012 FILLER_31_62
*1013 FILLER_31_74
*1014 FILLER_31_9
*1015 FILLER_31_98
*1016 FILLER_32_107
*1017 FILLER_32_119
*1018 FILLER_32_131
*1019 FILLER_32_139
*1020 FILLER_32_141
*1021 FILLER_32_153
*1022 FILLER_32_165
*1023 FILLER_32_177
*1024 FILLER_32_18
*1025 FILLER_32_189
*1026 FILLER_32_195
*1027 FILLER_32_197
*1028 FILLER_32_209
*1029 FILLER_32_221
*1030 FILLER_32_233
*1031 FILLER_32_245
*1032 FILLER_32_251
*1033 FILLER_32_253
*1034 FILLER_32_26
*1035 FILLER_32_265
*1036 FILLER_32_277
*1037 FILLER_32_289
*1038 FILLER_32_29
*1039 FILLER_32_297
*1040 FILLER_32_3
*1041 FILLER_32_47
*1042 FILLER_32_7
*1043 FILLER_32_73
*1044 FILLER_32_81
*1045 FILLER_32_85
*1046 FILLER_33_109
*1047 FILLER_33_113
*1048 FILLER_33_125
*1049 FILLER_33_137
*1050 FILLER_33_149
*1051 FILLER_33_16
*1052 FILLER_33_161
*1053 FILLER_33_167
*1054 FILLER_33_169
*1055 FILLER_33_181
*1056 FILLER_33_193
*1057 FILLER_33_205
*1058 FILLER_33_217
*1059 FILLER_33_223
*1060 FILLER_33_225
*1061 FILLER_33_237
*1062 FILLER_33_249
*1063 FILLER_33_261
*1064 FILLER_33_273
*1065 FILLER_33_279
*1066 FILLER_33_28
*1067 FILLER_33_281
*1068 FILLER_33_293
*1069 FILLER_33_3
*1070 FILLER_33_52
*1071 FILLER_33_57
*1072 FILLER_33_67
*1073 FILLER_33_7
*1074 FILLER_33_75
*1075 FILLER_33_97
*1076 FILLER_34_102
*1077 FILLER_34_114
*1078 FILLER_34_126
*1079 FILLER_34_138
*1080 FILLER_34_141
*1081 FILLER_34_153
*1082 FILLER_34_165
*1083 FILLER_34_177
*1084 FILLER_34_18
*1085 FILLER_34_189
*1086 FILLER_34_195
*1087 FILLER_34_197
*1088 FILLER_34_209
*1089 FILLER_34_221
*1090 FILLER_34_233
*1091 FILLER_34_245
*1092 FILLER_34_251
*1093 FILLER_34_253
*1094 FILLER_34_26
*1095 FILLER_34_265
*1096 FILLER_34_277
*1097 FILLER_34_289
*1098 FILLER_34_29
*1099 FILLER_34_297
*1100 FILLER_34_3
*1101 FILLER_34_51
*1102 FILLER_34_79
*1103 FILLER_34_83
*1104 FILLER_34_85
*1105 FILLER_34_90
*1106 FILLER_35_10
*1107 FILLER_35_101
*1108 FILLER_35_108
*1109 FILLER_35_113
*1110 FILLER_35_125
*1111 FILLER_35_137
*1112 FILLER_35_149
*1113 FILLER_35_161
*1114 FILLER_35_167
*1115 FILLER_35_169
*1116 FILLER_35_181
*1117 FILLER_35_193
*1118 FILLER_35_205
*1119 FILLER_35_217
*1120 FILLER_35_223
*1121 FILLER_35_225
*1122 FILLER_35_23
*1123 FILLER_35_237
*1124 FILLER_35_249
*1125 FILLER_35_261
*1126 FILLER_35_273
*1127 FILLER_35_279
*1128 FILLER_35_281
*1129 FILLER_35_293
*1130 FILLER_35_3
*1131 FILLER_35_34
*1132 FILLER_35_42
*1133 FILLER_35_54
*1134 FILLER_35_57
*1135 FILLER_35_61
*1136 FILLER_35_70
*1137 FILLER_35_94
*1138 FILLER_36_107
*1139 FILLER_36_119
*1140 FILLER_36_131
*1141 FILLER_36_139
*1142 FILLER_36_141
*1143 FILLER_36_153
*1144 FILLER_36_165
*1145 FILLER_36_17
*1146 FILLER_36_177
*1147 FILLER_36_189
*1148 FILLER_36_195
*1149 FILLER_36_197
*1150 FILLER_36_209
*1151 FILLER_36_21
*1152 FILLER_36_221
*1153 FILLER_36_233
*1154 FILLER_36_245
*1155 FILLER_36_251
*1156 FILLER_36_253
*1157 FILLER_36_26
*1158 FILLER_36_265
*1159 FILLER_36_277
*1160 FILLER_36_289
*1161 FILLER_36_29
*1162 FILLER_36_297
*1163 FILLER_36_3
*1164 FILLER_36_53
*1165 FILLER_36_77
*1166 FILLER_36_83
*1167 FILLER_36_85
*1168 FILLER_36_9
*1169 FILLER_36_95
*1170 FILLER_37_103
*1171 FILLER_37_111
*1172 FILLER_37_113
*1173 FILLER_37_125
*1174 FILLER_37_137
*1175 FILLER_37_149
*1176 FILLER_37_161
*1177 FILLER_37_167
*1178 FILLER_37_169
*1179 FILLER_37_18
*1180 FILLER_37_181
*1181 FILLER_37_193
*1182 FILLER_37_205
*1183 FILLER_37_217
*1184 FILLER_37_223
*1185 FILLER_37_225
*1186 FILLER_37_237
*1187 FILLER_37_249
*1188 FILLER_37_261
*1189 FILLER_37_273
*1190 FILLER_37_279
*1191 FILLER_37_281
*1192 FILLER_37_293
*1193 FILLER_37_3
*1194 FILLER_37_30
*1195 FILLER_37_54
*1196 FILLER_37_57
*1197 FILLER_37_69
*1198 FILLER_37_93
*1199 FILLER_38_107
*1200 FILLER_38_11
*1201 FILLER_38_119
*1202 FILLER_38_131
*1203 FILLER_38_139
*1204 FILLER_38_141
*1205 FILLER_38_153
*1206 FILLER_38_165
*1207 FILLER_38_177
*1208 FILLER_38_189
*1209 FILLER_38_195
*1210 FILLER_38_197
*1211 FILLER_38_209
*1212 FILLER_38_221
*1213 FILLER_38_23
*1214 FILLER_38_233
*1215 FILLER_38_245
*1216 FILLER_38_251
*1217 FILLER_38_253
*1218 FILLER_38_265
*1219 FILLER_38_27
*1220 FILLER_38_277
*1221 FILLER_38_289
*1222 FILLER_38_29
*1223 FILLER_38_297
*1224 FILLER_38_3
*1225 FILLER_38_34
*1226 FILLER_38_58
*1227 FILLER_38_82
*1228 FILLER_38_85
*1229 FILLER_39_109
*1230 FILLER_39_113
*1231 FILLER_39_121
*1232 FILLER_39_133
*1233 FILLER_39_145
*1234 FILLER_39_157
*1235 FILLER_39_165
*1236 FILLER_39_169
*1237 FILLER_39_18
*1238 FILLER_39_181
*1239 FILLER_39_193
*1240 FILLER_39_205
*1241 FILLER_39_217
*1242 FILLER_39_223
*1243 FILLER_39_225
*1244 FILLER_39_237
*1245 FILLER_39_249
*1246 FILLER_39_261
*1247 FILLER_39_273
*1248 FILLER_39_279
*1249 FILLER_39_281
*1250 FILLER_39_293
*1251 FILLER_39_3
*1252 FILLER_39_30
*1253 FILLER_39_54
*1254 FILLER_39_57
*1255 FILLER_39_65
*1256 FILLER_39_89
*1257 FILLER_39_99
*1258 FILLER_3_103
*1259 FILLER_3_111
*1260 FILLER_3_113
*1261 FILLER_3_125
*1262 FILLER_3_137
*1263 FILLER_3_149
*1264 FILLER_3_161
*1265 FILLER_3_167
*1266 FILLER_3_169
*1267 FILLER_3_181
*1268 FILLER_3_193
*1269 FILLER_3_205
*1270 FILLER_3_217
*1271 FILLER_3_223
*1272 FILLER_3_225
*1273 FILLER_3_237
*1274 FILLER_3_249
*1275 FILLER_3_261
*1276 FILLER_3_273
*1277 FILLER_3_279
*1278 FILLER_3_281
*1279 FILLER_3_29
*1280 FILLER_3_293
*1281 FILLER_3_3
*1282 FILLER_3_53
*1283 FILLER_3_57
*1284 FILLER_3_67
*1285 FILLER_3_79
*1286 FILLER_3_91
*1287 FILLER_40_107
*1288 FILLER_40_119
*1289 FILLER_40_131
*1290 FILLER_40_139
*1291 FILLER_40_141
*1292 FILLER_40_15
*1293 FILLER_40_153
*1294 FILLER_40_165
*1295 FILLER_40_177
*1296 FILLER_40_189
*1297 FILLER_40_195
*1298 FILLER_40_197
*1299 FILLER_40_209
*1300 FILLER_40_221
*1301 FILLER_40_233
*1302 FILLER_40_245
*1303 FILLER_40_251
*1304 FILLER_40_253
*1305 FILLER_40_26
*1306 FILLER_40_265
*1307 FILLER_40_277
*1308 FILLER_40_289
*1309 FILLER_40_29
*1310 FILLER_40_297
*1311 FILLER_40_3
*1312 FILLER_40_47
*1313 FILLER_40_55
*1314 FILLER_40_7
*1315 FILLER_40_76
*1316 FILLER_40_85
*1317 FILLER_41_107
*1318 FILLER_41_111
*1319 FILLER_41_113
*1320 FILLER_41_12
*1321 FILLER_41_121
*1322 FILLER_41_133
*1323 FILLER_41_145
*1324 FILLER_41_157
*1325 FILLER_41_165
*1326 FILLER_41_169
*1327 FILLER_41_181
*1328 FILLER_41_193
*1329 FILLER_41_205
*1330 FILLER_41_217
*1331 FILLER_41_223
*1332 FILLER_41_225
*1333 FILLER_41_237
*1334 FILLER_41_249
*1335 FILLER_41_261
*1336 FILLER_41_273
*1337 FILLER_41_279
*1338 FILLER_41_281
*1339 FILLER_41_293
*1340 FILLER_41_3
*1341 FILLER_41_36
*1342 FILLER_41_44
*1343 FILLER_41_54
*1344 FILLER_41_57
*1345 FILLER_41_71
*1346 FILLER_41_95
*1347 FILLER_42_105
*1348 FILLER_42_112
*1349 FILLER_42_124
*1350 FILLER_42_136
*1351 FILLER_42_141
*1352 FILLER_42_153
*1353 FILLER_42_165
*1354 FILLER_42_177
*1355 FILLER_42_189
*1356 FILLER_42_195
*1357 FILLER_42_197
*1358 FILLER_42_20
*1359 FILLER_42_209
*1360 FILLER_42_221
*1361 FILLER_42_233
*1362 FILLER_42_245
*1363 FILLER_42_251
*1364 FILLER_42_253
*1365 FILLER_42_265
*1366 FILLER_42_277
*1367 FILLER_42_289
*1368 FILLER_42_29
*1369 FILLER_42_297
*1370 FILLER_42_3
*1371 FILLER_42_47
*1372 FILLER_42_71
*1373 FILLER_42_81
*1374 FILLER_42_85
*1375 FILLER_42_9
*1376 FILLER_42_95
*1377 FILLER_43_102
*1378 FILLER_43_110
*1379 FILLER_43_113
*1380 FILLER_43_125
*1381 FILLER_43_137
*1382 FILLER_43_149
*1383 FILLER_43_161
*1384 FILLER_43_167
*1385 FILLER_43_169
*1386 FILLER_43_18
*1387 FILLER_43_181
*1388 FILLER_43_193
*1389 FILLER_43_205
*1390 FILLER_43_217
*1391 FILLER_43_22
*1392 FILLER_43_223
*1393 FILLER_43_225
*1394 FILLER_43_237
*1395 FILLER_43_249
*1396 FILLER_43_261
*1397 FILLER_43_27
*1398 FILLER_43_273
*1399 FILLER_43_279
*1400 FILLER_43_281
*1401 FILLER_43_293
*1402 FILLER_43_3
*1403 FILLER_43_51
*1404 FILLER_43_55
*1405 FILLER_43_57
*1406 FILLER_43_62
*1407 FILLER_43_76
*1408 FILLER_43_80
*1409 FILLER_44_107
*1410 FILLER_44_119
*1411 FILLER_44_131
*1412 FILLER_44_139
*1413 FILLER_44_141
*1414 FILLER_44_153
*1415 FILLER_44_165
*1416 FILLER_44_17
*1417 FILLER_44_177
*1418 FILLER_44_189
*1419 FILLER_44_195
*1420 FILLER_44_197
*1421 FILLER_44_209
*1422 FILLER_44_21
*1423 FILLER_44_221
*1424 FILLER_44_233
*1425 FILLER_44_245
*1426 FILLER_44_251
*1427 FILLER_44_253
*1428 FILLER_44_26
*1429 FILLER_44_265
*1430 FILLER_44_277
*1431 FILLER_44_289
*1432 FILLER_44_29
*1433 FILLER_44_297
*1434 FILLER_44_3
*1435 FILLER_44_34
*1436 FILLER_44_58
*1437 FILLER_44_82
*1438 FILLER_44_85
*1439 FILLER_45_104
*1440 FILLER_45_113
*1441 FILLER_45_125
*1442 FILLER_45_137
*1443 FILLER_45_149
*1444 FILLER_45_161
*1445 FILLER_45_167
*1446 FILLER_45_169
*1447 FILLER_45_181
*1448 FILLER_45_193
*1449 FILLER_45_205
*1450 FILLER_45_217
*1451 FILLER_45_223
*1452 FILLER_45_225
*1453 FILLER_45_237
*1454 FILLER_45_249
*1455 FILLER_45_26
*1456 FILLER_45_261
*1457 FILLER_45_273
*1458 FILLER_45_279
*1459 FILLER_45_281
*1460 FILLER_45_293
*1461 FILLER_45_3
*1462 FILLER_45_54
*1463 FILLER_45_57
*1464 FILLER_45_67
*1465 FILLER_45_71
*1466 FILLER_45_92
*1467 FILLER_46_107
*1468 FILLER_46_119
*1469 FILLER_46_131
*1470 FILLER_46_139
*1471 FILLER_46_141
*1472 FILLER_46_153
*1473 FILLER_46_165
*1474 FILLER_46_177
*1475 FILLER_46_189
*1476 FILLER_46_195
*1477 FILLER_46_197
*1478 FILLER_46_209
*1479 FILLER_46_221
*1480 FILLER_46_233
*1481 FILLER_46_245
*1482 FILLER_46_251
*1483 FILLER_46_253
*1484 FILLER_46_26
*1485 FILLER_46_265
*1486 FILLER_46_277
*1487 FILLER_46_289
*1488 FILLER_46_29
*1489 FILLER_46_297
*1490 FILLER_46_3
*1491 FILLER_46_35
*1492 FILLER_46_44
*1493 FILLER_46_56
*1494 FILLER_46_82
*1495 FILLER_46_85
*1496 FILLER_46_95
*1497 FILLER_47_105
*1498 FILLER_47_111
*1499 FILLER_47_113
*1500 FILLER_47_125
*1501 FILLER_47_137
*1502 FILLER_47_149
*1503 FILLER_47_161
*1504 FILLER_47_167
*1505 FILLER_47_169
*1506 FILLER_47_181
*1507 FILLER_47_193
*1508 FILLER_47_205
*1509 FILLER_47_217
*1510 FILLER_47_223
*1511 FILLER_47_225
*1512 FILLER_47_237
*1513 FILLER_47_249
*1514 FILLER_47_261
*1515 FILLER_47_273
*1516 FILLER_47_279
*1517 FILLER_47_281
*1518 FILLER_47_293
*1519 FILLER_47_3
*1520 FILLER_47_30
*1521 FILLER_47_54
*1522 FILLER_47_57
*1523 FILLER_47_67
*1524 FILLER_47_93
*1525 FILLER_48_107
*1526 FILLER_48_119
*1527 FILLER_48_131
*1528 FILLER_48_139
*1529 FILLER_48_141
*1530 FILLER_48_153
*1531 FILLER_48_165
*1532 FILLER_48_177
*1533 FILLER_48_189
*1534 FILLER_48_195