*SPEF "ieee 1481-1999"
*DESIGN "user_module_349047610915422802"
*DATE "11:11:11 Fri 11 11, 1111"
*VENDOR "OpenRCX"
*PROGRAM "Parallel Extraction"
*VERSION "1.0"
*DESIGN_FLOW "NAME_SCOPE LOCAL" "PIN_CAP NONE"
*DIVIDER /
*DELIMITER :
*BUS_DELIMITER []
*T_UNIT 1 NS
*C_UNIT 1 PF
*R_UNIT 1 OHM
*L_UNIT 1 HENRY

*NAME_MAP
*1 io_in[0]
*2 io_in[1]
*3 io_in[2]
*4 io_in[3]
*5 io_in[4]
*6 io_in[5]
*7 io_in[6]
*8 io_in[7]
*9 io_out[0]
*10 io_out[1]
*11 io_out[2]
*12 io_out[3]
*13 io_out[4]
*14 net6
*15 net7
*16 io_out[7]
*19 _00_
*20 _01_
*21 _02_
*22 _03_
*23 _04_
*24 _05_
*25 _06_
*26 _07_
*27 _08_
*28 _09_
*29 _10_
*30 _11_
*31 _12_
*32 clknet_0__01_
*33 clknet_0__04_
*34 clknet_0__06_
*35 clknet_0_io_in[0]
*36 clknet_1_0__leaf__01_
*37 clknet_1_0__leaf__04_
*38 clknet_1_0__leaf__06_
*39 clknet_1_0__leaf_io_in[0]
*40 clknet_1_1__leaf__01_
*41 clknet_1_1__leaf__04_
*42 clknet_1_1__leaf__06_
*43 clknet_1_1__leaf_io_in[0]
*44 flipflop2\.notq
*45 flipflop2\.q
*46 flipflop3\.notq
*47 flipflop3\.q
*48 flipflop4\.notq
*49 flipflop4\.q
*50 flipflop5\.notq
*51 flipflop5\.q
*52 gate17\.out
*53 gate19\.out
*54 gate21\.out
*55 gate26\.out
*56 gate7\.out
*57 net1
*58 net2
*59 net3
*60 net4
*61 net5
*62 FILLER_0_109
*63 FILLER_0_113
*64 FILLER_0_125
*65 FILLER_0_137
*66 FILLER_0_141
*67 FILLER_0_15
*68 FILLER_0_153
*69 FILLER_0_165
*70 FILLER_0_169
*71 FILLER_0_181
*72 FILLER_0_193
*73 FILLER_0_197
*74 FILLER_0_209
*75 FILLER_0_221
*76 FILLER_0_225
*77 FILLER_0_237
*78 FILLER_0_249
*79 FILLER_0_253
*80 FILLER_0_265
*81 FILLER_0_27
*82 FILLER_0_277
*83 FILLER_0_281
*84 FILLER_0_29
*85 FILLER_0_293
*86 FILLER_0_3
*87 FILLER_0_41
*88 FILLER_0_53
*89 FILLER_0_57
*90 FILLER_0_69
*91 FILLER_0_81
*92 FILLER_0_85
*93 FILLER_0_97
*94 FILLER_10_109
*95 FILLER_10_121
*96 FILLER_10_133
*97 FILLER_10_139
*98 FILLER_10_141
*99 FILLER_10_15
*100 FILLER_10_153
*101 FILLER_10_165
*102 FILLER_10_177
*103 FILLER_10_189
*104 FILLER_10_195
*105 FILLER_10_197
*106 FILLER_10_209
*107 FILLER_10_221
*108 FILLER_10_233
*109 FILLER_10_245
*110 FILLER_10_251
*111 FILLER_10_253
*112 FILLER_10_265
*113 FILLER_10_27
*114 FILLER_10_277
*115 FILLER_10_289
*116 FILLER_10_29
*117 FILLER_10_297
*118 FILLER_10_3
*119 FILLER_10_41
*120 FILLER_10_53
*121 FILLER_10_65
*122 FILLER_10_77
*123 FILLER_10_83
*124 FILLER_10_85
*125 FILLER_10_97
*126 FILLER_11_105
*127 FILLER_11_111
*128 FILLER_11_113
*129 FILLER_11_125
*130 FILLER_11_137
*131 FILLER_11_149
*132 FILLER_11_15
*133 FILLER_11_161
*134 FILLER_11_167
*135 FILLER_11_169
*136 FILLER_11_181
*137 FILLER_11_193
*138 FILLER_11_205
*139 FILLER_11_217
*140 FILLER_11_223
*141 FILLER_11_225
*142 FILLER_11_237
*143 FILLER_11_249
*144 FILLER_11_261
*145 FILLER_11_27
*146 FILLER_11_273
*147 FILLER_11_279
*148 FILLER_11_281
*149 FILLER_11_293
*150 FILLER_11_3
*151 FILLER_11_39
*152 FILLER_11_51
*153 FILLER_11_55
*154 FILLER_11_57
*155 FILLER_11_69
*156 FILLER_11_81
*157 FILLER_11_93
*158 FILLER_12_109
*159 FILLER_12_121
*160 FILLER_12_133
*161 FILLER_12_139
*162 FILLER_12_141
*163 FILLER_12_153
*164 FILLER_12_165
*165 FILLER_12_177
*166 FILLER_12_189
*167 FILLER_12_195
*168 FILLER_12_197
*169 FILLER_12_20
*170 FILLER_12_209
*171 FILLER_12_221
*172 FILLER_12_233
*173 FILLER_12_245
*174 FILLER_12_251
*175 FILLER_12_253
*176 FILLER_12_265
*177 FILLER_12_277
*178 FILLER_12_289
*179 FILLER_12_29
*180 FILLER_12_297
*181 FILLER_12_3
*182 FILLER_12_41
*183 FILLER_12_53
*184 FILLER_12_65
*185 FILLER_12_77
*186 FILLER_12_8
*187 FILLER_12_83
*188 FILLER_12_85
*189 FILLER_12_97
*190 FILLER_13_105
*191 FILLER_13_111
*192 FILLER_13_113
*193 FILLER_13_125
*194 FILLER_13_137
*195 FILLER_13_149
*196 FILLER_13_15
*197 FILLER_13_161
*198 FILLER_13_167
*199 FILLER_13_169
*200 FILLER_13_181
*201 FILLER_13_193
*202 FILLER_13_205
*203 FILLER_13_217
*204 FILLER_13_223
*205 FILLER_13_225
*206 FILLER_13_237
*207 FILLER_13_249
*208 FILLER_13_261
*209 FILLER_13_27
*210 FILLER_13_273
*211 FILLER_13_279
*212 FILLER_13_281
*213 FILLER_13_293
*214 FILLER_13_3
*215 FILLER_13_39
*216 FILLER_13_51
*217 FILLER_13_55
*218 FILLER_13_57
*219 FILLER_13_69
*220 FILLER_13_81
*221 FILLER_13_93
*222 FILLER_14_109
*223 FILLER_14_121
*224 FILLER_14_133
*225 FILLER_14_139
*226 FILLER_14_141
*227 FILLER_14_15
*228 FILLER_14_153
*229 FILLER_14_165
*230 FILLER_14_177
*231 FILLER_14_189
*232 FILLER_14_195
*233 FILLER_14_197
*234 FILLER_14_209
*235 FILLER_14_221
*236 FILLER_14_233
*237 FILLER_14_245
*238 FILLER_14_251
*239 FILLER_14_253
*240 FILLER_14_265
*241 FILLER_14_27
*242 FILLER_14_277
*243 FILLER_14_289
*244 FILLER_14_29
*245 FILLER_14_297
*246 FILLER_14_3
*247 FILLER_14_41
*248 FILLER_14_53
*249 FILLER_14_65
*250 FILLER_14_77
*251 FILLER_14_83
*252 FILLER_14_85
*253 FILLER_14_97
*254 FILLER_15_105
*255 FILLER_15_111
*256 FILLER_15_113
*257 FILLER_15_125
*258 FILLER_15_137
*259 FILLER_15_149
*260 FILLER_15_15
*261 FILLER_15_161
*262 FILLER_15_167
*263 FILLER_15_169
*264 FILLER_15_181
*265 FILLER_15_193
*266 FILLER_15_205
*267 FILLER_15_217
*268 FILLER_15_223
*269 FILLER_15_225
*270 FILLER_15_237
*271 FILLER_15_249
*272 FILLER_15_261
*273 FILLER_15_27
*274 FILLER_15_273
*275 FILLER_15_279
*276 FILLER_15_281
*277 FILLER_15_293
*278 FILLER_15_3
*279 FILLER_15_39
*280 FILLER_15_51
*281 FILLER_15_55
*282 FILLER_15_57
*283 FILLER_15_69
*284 FILLER_15_81
*285 FILLER_15_93
*286 FILLER_16_109
*287 FILLER_16_121
*288 FILLER_16_133
*289 FILLER_16_139
*290 FILLER_16_141
*291 FILLER_16_15
*292 FILLER_16_153
*293 FILLER_16_165
*294 FILLER_16_177
*295 FILLER_16_189
*296 FILLER_16_195
*297 FILLER_16_197
*298 FILLER_16_209
*299 FILLER_16_221
*300 FILLER_16_233
*301 FILLER_16_245
*302 FILLER_16_251
*303 FILLER_16_253
*304 FILLER_16_265
*305 FILLER_16_27
*306 FILLER_16_277
*307 FILLER_16_289
*308 FILLER_16_29
*309 FILLER_16_297
*310 FILLER_16_3
*311 FILLER_16_41
*312 FILLER_16_53
*313 FILLER_16_65
*314 FILLER_16_77
*315 FILLER_16_83
*316 FILLER_16_85
*317 FILLER_16_97
*318 FILLER_17_105
*319 FILLER_17_111
*320 FILLER_17_113
*321 FILLER_17_125
*322 FILLER_17_137
*323 FILLER_17_149
*324 FILLER_17_15
*325 FILLER_17_161
*326 FILLER_17_167
*327 FILLER_17_169
*328 FILLER_17_181
*329 FILLER_17_193
*330 FILLER_17_205
*331 FILLER_17_217
*332 FILLER_17_223
*333 FILLER_17_225
*334 FILLER_17_237
*335 FILLER_17_249
*336 FILLER_17_261
*337 FILLER_17_27
*338 FILLER_17_273
*339 FILLER_17_279
*340 FILLER_17_281
*341 FILLER_17_293
*342 FILLER_17_3
*343 FILLER_17_39
*344 FILLER_17_51
*345 FILLER_17_55
*346 FILLER_17_57
*347 FILLER_17_69
*348 FILLER_17_81
*349 FILLER_17_93
*350 FILLER_18_109
*351 FILLER_18_121
*352 FILLER_18_13
*353 FILLER_18_133
*354 FILLER_18_139
*355 FILLER_18_141
*356 FILLER_18_153
*357 FILLER_18_165
*358 FILLER_18_177
*359 FILLER_18_189
*360 FILLER_18_195
*361 FILLER_18_197
*362 FILLER_18_209
*363 FILLER_18_221
*364 FILLER_18_233
*365 FILLER_18_245
*366 FILLER_18_25
*367 FILLER_18_251
*368 FILLER_18_253
*369 FILLER_18_265
*370 FILLER_18_277
*371 FILLER_18_289
*372 FILLER_18_29
*373 FILLER_18_297
*374 FILLER_18_3
*375 FILLER_18_41
*376 FILLER_18_53
*377 FILLER_18_65
*378 FILLER_18_7
*379 FILLER_18_77
*380 FILLER_18_83
*381 FILLER_18_85
*382 FILLER_18_97
*383 FILLER_19_105
*384 FILLER_19_111
*385 FILLER_19_113
*386 FILLER_19_125
*387 FILLER_19_137
*388 FILLER_19_149
*389 FILLER_19_161
*390 FILLER_19_167
*391 FILLER_19_169
*392 FILLER_19_181
*393 FILLER_19_19
*394 FILLER_19_193
*395 FILLER_19_205
*396 FILLER_19_217
*397 FILLER_19_223
*398 FILLER_19_225
*399 FILLER_19_237
*400 FILLER_19_249
*401 FILLER_19_261
*402 FILLER_19_273
*403 FILLER_19_279
*404 FILLER_19_281
*405 FILLER_19_293
*406 FILLER_19_3
*407 FILLER_19_31
*408 FILLER_19_43
*409 FILLER_19_55
*410 FILLER_19_57
*411 FILLER_19_69
*412 FILLER_19_81
*413 FILLER_19_93
*414 FILLER_1_105
*415 FILLER_1_111
*416 FILLER_1_113
*417 FILLER_1_125
*418 FILLER_1_137
*419 FILLER_1_149
*420 FILLER_1_15
*421 FILLER_1_161
*422 FILLER_1_167
*423 FILLER_1_169
*424 FILLER_1_181
*425 FILLER_1_193
*426 FILLER_1_205
*427 FILLER_1_217
*428 FILLER_1_223
*429 FILLER_1_225
*430 FILLER_1_237
*431 FILLER_1_249
*432 FILLER_1_261
*433 FILLER_1_27
*434 FILLER_1_273
*435 FILLER_1_279
*436 FILLER_1_281
*437 FILLER_1_293
*438 FILLER_1_3
*439 FILLER_1_39
*440 FILLER_1_51
*441 FILLER_1_55
*442 FILLER_1_57
*443 FILLER_1_69
*444 FILLER_1_81
*445 FILLER_1_93
*446 FILLER_20_109
*447 FILLER_20_11
*448 FILLER_20_121
*449 FILLER_20_133
*450 FILLER_20_139
*451 FILLER_20_141
*452 FILLER_20_153
*453 FILLER_20_165
*454 FILLER_20_17
*455 FILLER_20_177
*456 FILLER_20_189
*457 FILLER_20_195
*458 FILLER_20_197
*459 FILLER_20_209
*460 FILLER_20_221
*461 FILLER_20_233
*462 FILLER_20_24
*463 FILLER_20_245
*464 FILLER_20_251
*465 FILLER_20_253
*466 FILLER_20_265
*467 FILLER_20_277
*468 FILLER_20_289
*469 FILLER_20_29
*470 FILLER_20_297
*471 FILLER_20_3
*472 FILLER_20_41
*473 FILLER_20_53
*474 FILLER_20_65
*475 FILLER_20_77
*476 FILLER_20_83
*477 FILLER_20_85
*478 FILLER_20_97
*479 FILLER_21_105
*480 FILLER_21_111
*481 FILLER_21_113
*482 FILLER_21_125
*483 FILLER_21_137
*484 FILLER_21_149
*485 FILLER_21_15
*486 FILLER_21_161
*487 FILLER_21_167
*488 FILLER_21_169
*489 FILLER_21_181
*490 FILLER_21_193
*491 FILLER_21_205
*492 FILLER_21_217
*493 FILLER_21_223
*494 FILLER_21_225
*495 FILLER_21_237
*496 FILLER_21_249
*497 FILLER_21_261
*498 FILLER_21_273
*499 FILLER_21_279
*500 FILLER_21_281
*501 FILLER_21_293
*502 FILLER_21_3
*503 FILLER_21_35
*504 FILLER_21_47
*505 FILLER_21_55
*506 FILLER_21_57
*507 FILLER_21_69
*508 FILLER_21_81
*509 FILLER_21_93
*510 FILLER_22_109
*511 FILLER_22_121
*512 FILLER_22_133
*513 FILLER_22_139
*514 FILLER_22_141
*515 FILLER_22_15
*516 FILLER_22_153
*517 FILLER_22_165
*518 FILLER_22_177
*519 FILLER_22_189
*520 FILLER_22_195
*521 FILLER_22_197
*522 FILLER_22_209
*523 FILLER_22_221
*524 FILLER_22_233
*525 FILLER_22_245
*526 FILLER_22_251
*527 FILLER_22_253
*528 FILLER_22_265
*529 FILLER_22_27
*530 FILLER_22_277
*531 FILLER_22_289
*532 FILLER_22_29
*533 FILLER_22_297
*534 FILLER_22_3
*535 FILLER_22_41
*536 FILLER_22_53
*537 FILLER_22_65
*538 FILLER_22_77
*539 FILLER_22_83
*540 FILLER_22_85
*541 FILLER_22_97
*542 FILLER_23_105
*543 FILLER_23_111
*544 FILLER_23_113
*545 FILLER_23_125
*546 FILLER_23_137
*547 FILLER_23_149
*548 FILLER_23_161
*549 FILLER_23_167
*550 FILLER_23_169
*551 FILLER_23_17
*552 FILLER_23_181
*553 FILLER_23_193
*554 FILLER_23_205
*555 FILLER_23_217
*556 FILLER_23_223
*557 FILLER_23_225
*558 FILLER_23_237
*559 FILLER_23_24
*560 FILLER_23_249
*561 FILLER_23_261
*562 FILLER_23_273
*563 FILLER_23_279
*564 FILLER_23_281
*565 FILLER_23_293
*566 FILLER_23_3
*567 FILLER_23_36
*568 FILLER_23_48
*569 FILLER_23_57
*570 FILLER_23_69
*571 FILLER_23_8
*572 FILLER_23_81
*573 FILLER_23_93
*574 FILLER_24_109
*575 FILLER_24_121
*576 FILLER_24_133
*577 FILLER_24_139
*578 FILLER_24_141
*579 FILLER_24_15
*580 FILLER_24_153
*581 FILLER_24_165
*582 FILLER_24_177
*583 FILLER_24_189
*584 FILLER_24_195
*585 FILLER_24_197
*586 FILLER_24_209
*587 FILLER_24_221
*588 FILLER_24_233
*589 FILLER_24_245
*590 FILLER_24_251
*591 FILLER_24_253
*592 FILLER_24_265
*593 FILLER_24_27
*594 FILLER_24_277
*595 FILLER_24_289
*596 FILLER_24_29
*597 FILLER_24_297
*598 FILLER_24_3
*599 FILLER_24_41
*600 FILLER_24_53
*601 FILLER_24_65
*602 FILLER_24_77
*603 FILLER_24_83
*604 FILLER_24_85
*605 FILLER_24_97
*606 FILLER_25_105
*607 FILLER_25_111
*608 FILLER_25_113
*609 FILLER_25_12
*610 FILLER_25_125
*611 FILLER_25_137
*612 FILLER_25_149
*613 FILLER_25_161
*614 FILLER_25_167
*615 FILLER_25_169
*616 FILLER_25_181
*617 FILLER_25_193
*618 FILLER_25_205
*619 FILLER_25_217
*620 FILLER_25_223
*621 FILLER_25_225
*622 FILLER_25_237
*623 FILLER_25_249
*624 FILLER_25_261
*625 FILLER_25_273
*626 FILLER_25_279
*627 FILLER_25_281
*628 FILLER_25_293
*629 FILLER_25_3
*630 FILLER_25_32
*631 FILLER_25_52
*632 FILLER_25_57
*633 FILLER_25_69
*634 FILLER_25_7
*635 FILLER_25_81
*636 FILLER_25_93
*637 FILLER_26_109
*638 FILLER_26_121
*639 FILLER_26_133
*640 FILLER_26_139
*641 FILLER_26_141
*642 FILLER_26_153
*643 FILLER_26_165
*644 FILLER_26_177
*645 FILLER_26_189
*646 FILLER_26_195
*647 FILLER_26_197
*648 FILLER_26_209
*649 FILLER_26_221
*650 FILLER_26_233
*651 FILLER_26_245
*652 FILLER_26_25
*653 FILLER_26_251
*654 FILLER_26_253
*655 FILLER_26_265
*656 FILLER_26_277
*657 FILLER_26_289
*658 FILLER_26_29
*659 FILLER_26_297
*660 FILLER_26_3
*661 FILLER_26_41
*662 FILLER_26_53
*663 FILLER_26_65
*664 FILLER_26_77
*665 FILLER_26_83
*666 FILLER_26_85
*667 FILLER_26_97
*668 FILLER_27_105
*669 FILLER_27_111
*670 FILLER_27_113
*671 FILLER_27_125
*672 FILLER_27_137
*673 FILLER_27_149
*674 FILLER_27_161
*675 FILLER_27_167
*676 FILLER_27_169
*677 FILLER_27_181
*678 FILLER_27_193
*679 FILLER_27_205
*680 FILLER_27_217
*681 FILLER_27_223
*682 FILLER_27_225
*683 FILLER_27_237
*684 FILLER_27_249
*685 FILLER_27_25
*686 FILLER_27_261
*687 FILLER_27_273
*688 FILLER_27_279
*689 FILLER_27_281
*690 FILLER_27_293
*691 FILLER_27_3
*692 FILLER_27_45
*693 FILLER_27_53
*694 FILLER_27_57
*695 FILLER_27_69
*696 FILLER_27_81
*697 FILLER_27_93
*698 FILLER_28_10
*699 FILLER_28_109
*700 FILLER_28_121
*701 FILLER_28_133
*702 FILLER_28_139
*703 FILLER_28_141
*704 FILLER_28_153
*705 FILLER_28_165
*706 FILLER_28_177
*707 FILLER_28_18
*708 FILLER_28_189
*709 FILLER_28_195
*710 FILLER_28_197
*711 FILLER_28_209
*712 FILLER_28_221
*713 FILLER_28_233
*714 FILLER_28_245
*715 FILLER_28_25
*716 FILLER_28_251
*717 FILLER_28_253
*718 FILLER_28_265
*719 FILLER_28_277
*720 FILLER_28_289
*721 FILLER_28_29
*722 FILLER_28_297
*723 FILLER_28_3
*724 FILLER_28_41
*725 FILLER_28_53
*726 FILLER_28_65
*727 FILLER_28_77
*728 FILLER_28_83
*729 FILLER_28_85
*730 FILLER_28_97
*731 FILLER_29_105
*732 FILLER_29_111
*733 FILLER_29_113
*734 FILLER_29_12
*735 FILLER_29_125
*736 FILLER_29_137
*737 FILLER_29_149
*738 FILLER_29_161
*739 FILLER_29_167
*740 FILLER_29_169
*741 FILLER_29_181
*742 FILLER_29_19
*743 FILLER_29_193
*744 FILLER_29_205
*745 FILLER_29_217
*746 FILLER_29_223
*747 FILLER_29_225
*748 FILLER_29_237
*749 FILLER_29_249
*750 FILLER_29_261
*751 FILLER_29_273
*752 FILLER_29_279
*753 FILLER_29_281
*754 FILLER_29_293
*755 FILLER_29_3
*756 FILLER_29_31
*757 FILLER_29_43
*758 FILLER_29_55
*759 FILLER_29_57
*760 FILLER_29_69
*761 FILLER_29_8
*762 FILLER_29_81
*763 FILLER_29_93
*764 FILLER_2_109
*765 FILLER_2_121
*766 FILLER_2_133
*767 FILLER_2_139
*768 FILLER_2_141
*769 FILLER_2_15
*770 FILLER_2_153
*771 FILLER_2_165
*772 FILLER_2_177
*773 FILLER_2_189
*774 FILLER_2_195
*775 FILLER_2_197
*776 FILLER_2_209
*777 FILLER_2_221
*778 FILLER_2_233
*779 FILLER_2_245
*780 FILLER_2_251
*781 FILLER_2_253
*782 FILLER_2_265
*783 FILLER_2_27
*784 FILLER_2_277
*785 FILLER_2_289
*786 FILLER_2_29
*787 FILLER_2_297
*788 FILLER_2_3
*789 FILLER_2_41
*790 FILLER_2_53
*791 FILLER_2_65
*792 FILLER_2_77
*793 FILLER_2_83
*794 FILLER_2_85
*795 FILLER_2_97
*796 FILLER_30_109
*797 FILLER_30_121
*798 FILLER_30_133
*799 FILLER_30_139
*800 FILLER_30_141
*801 FILLER_30_153
*802 FILLER_30_165
*803 FILLER_30_177
*804 FILLER_30_189
*805 FILLER_30_195
*806 FILLER_30_197
*807 FILLER_30_209
*808 FILLER_30_221
*809 FILLER_30_233
*810 FILLER_30_245
*811 FILLER_30_25
*812 FILLER_30_251
*813 FILLER_30_253
*814 FILLER_30_265
*815 FILLER_30_277
*816 FILLER_30_289
*817 FILLER_30_29
*818 FILLER_30_297
*819 FILLER_30_3
*820 FILLER_30_34
*821 FILLER_30_46
*822 FILLER_30_58
*823 FILLER_30_70
*824 FILLER_30_82
*825 FILLER_30_85
*826 FILLER_30_97
*827 FILLER_31_105
*828 FILLER_31_11
*829 FILLER_31_111
*830 FILLER_31_113
*831 FILLER_31_125
*832 FILLER_31_137
*833 FILLER_31_149
*834 FILLER_31_15
*835 FILLER_31_161
*836 FILLER_31_167
*837 FILLER_31_169
*838 FILLER_31_181
*839 FILLER_31_193
*840 FILLER_31_205
*841 FILLER_31_217
*842 FILLER_31_223
*843 FILLER_31_225
*844 FILLER_31_237
*845 FILLER_31_249
*846 FILLER_31_261
*847 FILLER_31_273
*848 FILLER_31_279
*849 FILLER_31_281
*850 FILLER_31_293
*851 FILLER_31_3
*852 FILLER_31_36
*853 FILLER_31_48
*854 FILLER_31_57
*855 FILLER_31_69
*856 FILLER_31_81
*857 FILLER_31_93
*858 FILLER_32_109
*859 FILLER_32_121
*860 FILLER_32_133
*861 FILLER_32_139
*862 FILLER_32_141
*863 FILLER_32_153
*864 FILLER_32_165
*865 FILLER_32_177
*866 FILLER_32_18
*867 FILLER_32_189
*868 FILLER_32_195
*869 FILLER_32_197
*870 FILLER_32_209
*871 FILLER_32_221
*872 FILLER_32_233
*873 FILLER_32_245
*874 FILLER_32_251
*875 FILLER_32_253
*876 FILLER_32_26
*877 FILLER_32_265
*878 FILLER_32_277
*879 FILLER_32_289
*880 FILLER_32_29
*881 FILLER_32_297
*882 FILLER_32_3
*883 FILLER_32_34
*884 FILLER_32_46
*885 FILLER_32_58
*886 FILLER_32_70
*887 FILLER_32_82
*888 FILLER_32_85
*889 FILLER_32_97
*890 FILLER_33_105
*891 FILLER_33_111
*892 FILLER_33_113
*893 FILLER_33_125
*894 FILLER_33_137
*895 FILLER_33_149
*896 FILLER_33_161
*897 FILLER_33_167
*898 FILLER_33_169
*899 FILLER_33_181
*900 FILLER_33_193
*901 FILLER_33_205
*902 FILLER_33_217
*903 FILLER_33_223
*904 FILLER_33_225
*905 FILLER_33_237
*906 FILLER_33_249
*907 FILLER_33_261
*908 FILLER_33_273
*909 FILLER_33_279
*910 FILLER_33_28
*911 FILLER_33_281
*912 FILLER_33_293
*913 FILLER_33_3
*914 FILLER_33_40
*915 FILLER_33_52
*916 FILLER_33_57
*917 FILLER_33_69
*918 FILLER_33_7
*919 FILLER_33_81
*920 FILLER_33_93
*921 FILLER_34_10
*922 FILLER_34_109
*923 FILLER_34_121
*924 FILLER_34_133
*925 FILLER_34_139
*926 FILLER_34_141
*927 FILLER_34_153
*928 FILLER_34_165
*929 FILLER_34_177
*930 FILLER_34_18
*931 FILLER_34_189
*932 FILLER_34_195
*933 FILLER_34_197
*934 FILLER_34_209
*935 FILLER_34_221
*936 FILLER_34_233
*937 FILLER_34_245
*938 FILLER_34_251
*939 FILLER_34_253
*940 FILLER_34_26
*941 FILLER_34_265
*942 FILLER_34_277
*943 FILLER_34_289
*944 FILLER_34_29
*945 FILLER_34_297
*946 FILLER_34_3
*947 FILLER_34_41
*948 FILLER_34_53
*949 FILLER_34_65
*950 FILLER_34_77
*951 FILLER_34_83
*952 FILLER_34_85
*953 FILLER_34_97
*954 FILLER_35_105
*955 FILLER_35_111
*956 FILLER_35_113
*957 FILLER_35_125
*958 FILLER_35_137
*959 FILLER_35_149
*960 FILLER_35_161
*961 FILLER_35_167
*962 FILLER_35_169
*963 FILLER_35_181
*964 FILLER_35_193
*965 FILLER_35_205
*966 FILLER_35_217
*967 FILLER_35_223
*968 FILLER_35_225
*969 FILLER_35_237
*970 FILLER_35_249
*971 FILLER_35_261
*972 FILLER_35_27
*973 FILLER_35_273
*974 FILLER_35_279
*975 FILLER_35_281
*976 FILLER_35_293
*977 FILLER_35_3
*978 FILLER_35_39
*979 FILLER_35_51
*980 FILLER_35_55
*981 FILLER_35_57
*982 FILLER_35_69
*983 FILLER_35_81
*984 FILLER_35_93
*985 FILLER_36_109
*986 FILLER_36_121
*987 FILLER_36_133
*988 FILLER_36_139
*989 FILLER_36_141
*990 FILLER_36_153
*991 FILLER_36_165
*992 FILLER_36_177
*993 FILLER_36_189
*994 FILLER_36_195
*995 FILLER_36_197
*996 FILLER_36_209
*997 FILLER_36_221
*998 FILLER_36_233
*999 FILLER_36_245
*1000 FILLER_36_25
*1001 FILLER_36_251
*1002 FILLER_36_253
*1003 FILLER_36_265
*1004 FILLER_36_277
*1005 FILLER_36_289
*1006 FILLER_36_29
*1007 FILLER_36_297
*1008 FILLER_36_3
*1009 FILLER_36_41
*1010 FILLER_36_53
*1011 FILLER_36_65
*1012 FILLER_36_77
*1013 FILLER_36_83
*1014 FILLER_36_85
*1015 FILLER_36_97
*1016 FILLER_37_105
*1017 FILLER_37_111
*1018 FILLER_37_113
*1019 FILLER_37_12
*1020 FILLER_37_125
*1021 FILLER_37_137
*1022 FILLER_37_149
*1023 FILLER_37_161
*1024 FILLER_37_167
*1025 FILLER_37_169
*1026 FILLER_37_181
*1027 FILLER_37_193
*1028 FILLER_37_205
*1029 FILLER_37_217
*1030 FILLER_37_223
*1031 FILLER_37_225
*1032 FILLER_37_237
*1033 FILLER_37_249
*1034 FILLER_37_261
*1035 FILLER_37_273
*1036 FILLER_37_279
*1037 FILLER_37_281
*1038 FILLER_37_293
*1039 FILLER_37_3
*1040 FILLER_37_36
*1041 FILLER_37_48
*1042 FILLER_37_57
*1043 FILLER_37_69
*1044 FILLER_37_81
*1045 FILLER_37_93
*1046 FILLER_38_109
*1047 FILLER_38_121
*1048 FILLER_38_133
*1049 FILLER_38_139
*1050 FILLER_38_141
*1051 FILLER_38_153
*1052 FILLER_38_165
*1053 FILLER_38_177
*1054 FILLER_38_18
*1055 FILLER_38_189
*1056 FILLER_38_195
*1057 FILLER_38_197
*1058 FILLER_38_209
*1059 FILLER_38_221
*1060 FILLER_38_233
*1061 FILLER_38_245
*1062 FILLER_38_251
*1063 FILLER_38_253
*1064 FILLER_38_26
*1065 FILLER_38_265
*1066 FILLER_38_277
*1067 FILLER_38_289
*1068 FILLER_38_29
*1069 FILLER_38_297
*1070 FILLER_38_3
*1071 FILLER_38_41
*1072 FILLER_38_53
*1073 FILLER_38_65
*1074 FILLER_38_77
*1075 FILLER_38_83
*1076 FILLER_38_85
*1077 FILLER_38_97
*1078 FILLER_39_105
*1079 FILLER_39_111
*1080 FILLER_39_113
*1081 FILLER_39_125
*1082 FILLER_39_137
*1083 FILLER_39_149
*1084 FILLER_39_161
*1085 FILLER_39_167
*1086 FILLER_39_169
*1087 FILLER_39_181
*1088 FILLER_39_193
*1089 FILLER_39_205
*1090 FILLER_39_217
*1091 FILLER_39_223
*1092 FILLER_39_225
*1093 FILLER_39_237
*1094 FILLER_39_249
*1095 FILLER_39_261
*1096 FILLER_39_273
*1097 FILLER_39_279
*1098 FILLER_39_281
*1099 FILLER_39_29
*1100 FILLER_39_293
*1101 FILLER_39_3
*1102 FILLER_39_41
*1103 FILLER_39_53
*1104 FILLER_39_57
*1105 FILLER_39_69
*1106 FILLER_39_81
*1107 FILLER_39_93
*1108 FILLER_3_105
*1109 FILLER_3_111
*1110 FILLER_3_113
*1111 FILLER_3_125
*1112 FILLER_3_137
*1113 FILLER_3_149
*1114 FILLER_3_15
*1115 FILLER_3_161
*1116 FILLER_3_167
*1117 FILLER_3_169
*1118 FILLER_3_181
*1119 FILLER_3_193
*1120 FILLER_3_205
*1121 FILLER_3_217
*1122 FILLER_3_223
*1123 FILLER_3_225
*1124 FILLER_3_237
*1125 FILLER_3_249
*1126 FILLER_3_261
*1127 FILLER_3_27
*1128 FILLER_3_273
*1129 FILLER_3_279
*1130 FILLER_3_281
*1131 FILLER_3_293
*1132 FILLER_3_3
*1133 FILLER_3_39
*1134 FILLER_3_51
*1135 FILLER_3_55
*1136 FILLER_3_57
*1137 FILLER_3_69
*1138 FILLER_3_81
*1139 FILLER_3_93
*1140 FILLER_40_109
*1141 FILLER_40_121
*1142 FILLER_40_133
*1143 FILLER_40_139
*1144 FILLER_40_14
*1145 FILLER_40_141
*1146 FILLER_40_153
*1147 FILLER_40_165
*1148 FILLER_40_177
*1149 FILLER_40_189
*1150 FILLER_40_195
*1151 FILLER_40_197
*1152 FILLER_40_209
*1153 FILLER_40_22
*1154 FILLER_40_221
*1155 FILLER_40_233
*1156 FILLER_40_245
*1157 FILLER_40_251
*1158 FILLER_40_253
*1159 FILLER_40_265
*1160 FILLER_40_277
*1161 FILLER_40_289
*1162 FILLER_40_29
*1163 FILLER_40_297
*1164 FILLER_40_3
*1165 FILLER_40_41
*1166 FILLER_40_53
*1167 FILLER_40_65
*1168 FILLER_40_77
*1169 FILLER_40_83
*1170 FILLER_40_85
*1171 FILLER_40_97
*1172 FILLER_41_105
*1173 FILLER_41_111
*1174 FILLER_41_113
*1175 FILLER_41_125
*1176 FILLER_41_137
*1177 FILLER_41_149
*1178 FILLER_41_161
*1179 FILLER_41_167
*1180 FILLER_41_169
*1181 FILLER_41_181
*1182 FILLER_41_193
*1183 FILLER_41_205
*1184 FILLER_41_217
*1185 FILLER_41_223
*1186 FILLER_41_225
*1187 FILLER_41_237
*1188 FILLER_41_249
*1189 FILLER_41_25
*1190 FILLER_41_261
*1191 FILLER_41_273
*1192 FILLER_41_279
*1193 FILLER_41_281
*1194 FILLER_41_293
*1195 FILLER_41_3
*1196 FILLER_41_37
*1197 FILLER_41_49
*1198 FILLER_41_55
*1199 FILLER_41_57
*1200 FILLER_41_69
*1201 FILLER_41_81
*1202 FILLER_41_93
*1203 FILLER_42_109
*1204 FILLER_42_121
*1205 FILLER_42_133
*1206 FILLER_42_139
*1207 FILLER_42_141
*1208 FILLER_42_153
*1209 FILLER_42_165
*1210 FILLER_42_177
*1211 FILLER_42_18
*1212 FILLER_42_189
*1213 FILLER_42_195
*1214 FILLER_42_197
*1215 FILLER_42_209
*1216 FILLER_42_221
*1217 FILLER_42_233
*1218 FILLER_42_245
*1219 FILLER_42_251
*1220 FILLER_42_253
*1221 FILLER_42_26
*1222 FILLER_42_265
*1223 FILLER_42_277
*1224 FILLER_42_289
*1225 FILLER_42_29
*1226 FILLER_42_297
*1227 FILLER_42_3
*1228 FILLER_42_41
*1229 FILLER_42_53
*1230 FILLER_42_65
*1231 FILLER_42_77
*1232 FILLER_42_83
*1233 FILLER_42_85
*1234 FILLER_42_97
*1235 FILLER_43_105
*1236 FILLER_43_11
*1237 FILLER_43_111
*1238 FILLER_43_113
*1239 FILLER_43_125
*1240 FILLER_43_137
*1241 FILLER_43_149
*1242 FILLER_43_161
*1243 FILLER_43_167
*1244 FILLER_43_169
*1245 FILLER_43_181
*1246 FILLER_43_193
*1247 FILLER_43_205
*1248 FILLER_43_217
*1249 FILLER_43_223
*1250 FILLER_43_225
*1251 FILLER_43_237
*1252 FILLER_43_249
*1253 FILLER_43_261
*1254 FILLER_43_273
*1255 FILLER_43_279
*1256 FILLER_43_281
*1257 FILLER_43_293
*1258 FILLER_43_3
*1259 FILLER_43_32
*1260 FILLER_43_44
*1261 FILLER_43_57
*1262 FILLER_43_69
*1263 FILLER_43_81
*1264 FILLER_43_93
*1265 FILLER_44_109
*1266 FILLER_44_12
*1267 FILLER_44_121
*1268 FILLER_44_133
*1269 FILLER_44_139
*1270 FILLER_44_141
*1271 FILLER_44_153
*1272 FILLER_44_165
*1273 FILLER_44_177
*1274 FILLER_44_189
*1275 FILLER_44_195
*1276 FILLER_44_197
*1277 FILLER_44_209
*1278 FILLER_44_221
*1279 FILLER_44_233
*1280 FILLER_44_24
*1281 FILLER_44_245
*1282 FILLER_44_251
*1283 FILLER_44_253
*1284 FILLER_44_265
*1285 FILLER_44_277
*1286 FILLER_44_289
*1287 FILLER_44_29
*1288 FILLER_44_297
*1289 FILLER_44_3
*1290 FILLER_44_41
*1291 FILLER_44_53
*1292 FILLER_44_65
*1293 FILLER_44_77
*1294 FILLER_44_83
*1295 FILLER_44_85
*1296 FILLER_44_97
*1297 FILLER_45_105
*1298 FILLER_45_111
*1299 FILLER_45_113
*1300 FILLER_45_125
*1301 FILLER_45_137
*1302 FILLER_45_149
*1303 FILLER_45_161
*1304 FILLER_45_167
*1305 FILLER_45_169
*1306 FILLER_45_181
*1307 FILLER_45_193
*1308 FILLER_45_205
*1309 FILLER_45_21
*1310 FILLER_45_217
*1311 FILLER_45_223
*1312 FILLER_45_225
*1313 FILLER_45_237
*1314 FILLER_45_249
*1315 FILLER_45_261
*1316 FILLER_45_273
*1317 FILLER_45_279
*1318 FILLER_45_281
*1319 FILLER_45_293
*1320 FILLER_45_3
*1321 FILLER_45_33
*1322 FILLER_45_45
*1323 FILLER_45_53
*1324 FILLER_45_57
*1325 FILLER_45_69
*1326 FILLER_45_81
*1327 FILLER_45_9
*1328 FILLER_45_93
*1329 FILLER_46_109
*1330 FILLER_46_121
*1331 FILLER_46_133
*1332 FILLER_46_139
*1333 FILLER_46_141
*1334 FILLER_46_153
*1335 FILLER_46_165
*1336 FILLER_46_177
*1337 FILLER_46_189
*1338 FILLER_46_195
*1339 FILLER_46_197
*1340 FILLER_46_209
*1341 FILLER_46_221
*1342 FILLER_46_233
*1343 FILLER_46_245
*1344 FILLER_46_25
*1345 FILLER_46_251
*1346 FILLER_46_253
*1347 FILLER_46_265
*1348 FILLER_46_277
*1349 FILLER_46_289
*1350 FILLER_46_29
*1351 FILLER_46_297
*1352 FILLER_46_3
*1353 FILLER_46_41
*1354 FILLER_46_53
*1355 FILLER_46_65
*1356 FILLER_46_77
*1357 FILLER_46_83
*1358 FILLER_46_85
*1359 FILLER_46_97
*1360 FILLER_47_105
*1361 FILLER_47_11
*1362 FILLER_47_111
*1363 FILLER_47_113
*1364 FILLER_47_125
*1365 FILLER_47_137
*1366 FILLER_47_149
*1367 FILLER_47_16
*1368 FILLER_47_161
*1369 FILLER_47_167
*1370 FILLER_47_169
*1371 FILLER_47_181
*1372 FILLER_47_193
*1373 FILLER_47_205
*1374 FILLER_47_217
*1375 FILLER_47_223
*1376 FILLER_47_225
*1377 FILLER_47_237
*1378 FILLER_47_249
*1379 FILLER_47_261
*1380 FILLER_47_273
*1381 FILLER_47_279
*1382 FILLER_47_28
*1383 FILLER_47_281
*1384 FILLER_47_293
*1385 FILLER_47_3
*1386 FILLER_47_40
*1387 FILLER_47_52
*1388 FILLER_47_57
*1389 FILLER_47_69
*1390 FILLER_47_81
*1391 FILLER_47_93
*1392 FILLER_48_109
*1393 FILLER_48_121
*1394 FILLER_48_133
*1395 FILLER_48_139
*1396 FILLER_48_141
*1397 FILLER_48_15
*1398 FILLER_48_153
*1399 FILLER_48_165
*1400 FILLER_48_177
*1401 FILLER_48_189
*1402 FILLER_48_195
*1403 FILLER_48_197
*1404 FILLER_48_209
*1405 FILLER_48_221
*1406 FILLER_48_233
*1407 FILLER_48_245
*1408 FILLER_48_251
*1409 FILLER_48_253
*1410 FILLER_48_265
*1411 FILLER_48_27
*1412 FILLER_48_277
*1413 FILLER_48_289
*1414 FILLER_48_29
*1415 FILLER_48_297
*1416 FILLER_48_3
*1417 FILLER_48_41
*1418 FILLER_48_53
*1419 FILLER_48_65
*1420 FILLER_48_77
*1421 FILLER_48_83
*1422 FILLER_48_85
*1423 FILLER_48_97
*1424 FILLER_49_105
*1425 FILLER_49_111
*1426 FILLER_49_113
*1427 FILLER_49_125
*1428 FILLER_49_137
*1429 FILLER_49_149
*1430 FILLER_49_15
*1431 FILLER_49_161
*1432 FILLER_49_167
*1433 FILLER_49_169
*1434 FILLER_49_181
*1435 FILLER_49_193
*1436 FILLER_49_205
*1437 FILLER_49_217
*1438 FILLER_49_223
*1439 FILLER_49_225
*1440 FILLER_49_237
*1441 FILLER_49_249
*1442 FILLER_49_261
*1443 FILLER_49_27
*1444 FILLER_49_273
*1445 FILLER_49_279
*1446 FILLER_49_281
*1447 FILLER_49_293
*1448 FILLER_49_3
*1449 FILLER_49_39
*1450 FILLER_49_51
*1451 FILLER_49_55
*1452 FILLER_49_57
*1453 FILLER_49_69
*1454 FILLER_49_81
*1455 FILLER_49_93
*1456 FILLER_4_109
*1457 FILLER_4_121
*1458 FILLER_4_133
*1459 FILLER_4_139
*1460 FILLER_4_141
*1461 FILLER_4_15
*1462 FILLER_4_153
*1463 FILLER_4_165
*1464 FILLER_4_177
*1465 FILLER_4_189
*1466 FILLER_4_195
*1467 FILLER_4_197
*1468 FILLER_4_209
*1469 FILLER_4_221
*1470 FILLER_4_233
*1471 FILLER_4_245
*1472 FILLER_4_251
*1473 FILLER_4_253
*1474 FILLER_4_265
*1475 FILLER_4_27
*1476 FILLER_4_277
*1477 FILLER_4_289
*1478 FILLER_4_29
*1479 FILLER_4_297
*1480 FILLER_4_3
*1481 FILLER_4_41
*1482 FILLER_4_53
*1483 FILLER_4_65
*1484 FILLER_4_77
*1485 FILLER_4_83
*1486 FILLER_4_85
*1487 FILLER_4_97
*1488 FILLER_50_109
*1489 FILLER_50_121
*1490 FILLER_50_133
*1491 FILLER_50_139
*1492 FILLER_50_141
*1493 FILLER_50_153
*1494 FILLER_50_165
*1495 FILLER_50_177
*1496 FILLER_50_189
*1497 FILLER_50_195
*1498 FILLER_50_197
*1499 FILLER_50_20
*1500 FILLER_50_209
*1501 FILLER_50_221
*1502 FILLER_50_233
*1503 FILLER_50_245
*1504 FILLER_50_251
*1505 FILLER_50_253
*1506 FILLER_50_265
*1507 FILLER_50_277
*1508 FILLER_50_289
*1509 FILLER_50_29
*1510 FILLER_50_297
*1511 FILLER_50_3
*1512 FILLER_50_41
*1513 FILLER_50_53
*1514 FILLER_50_65
*1515 FILLER_50_77
*1516 FILLER_50_8
*1517 FILLER_50_83
*1518 FILLER_50_85
*1519 FILLER_50_97
*1520 FILLER_51_105
*1521 FILLER_51_111
*1522 FILLER_51_113
*1523 FILLER_51_125
*1524 FILLER_51_137
*1525 FILLER_51_149
*1526 FILLER_51_15
*1527 FILLER_51_161
*1528 FILLER_51_167
*1529 FILLER_51_169
*1530 FILLER_51_181
*1531 FILLER_51_193
*1532 FILLER_51_205
*1533 FILLER_51_217
*1534 FILLER_51_223
*1535 FILLER_51_225
*1536 FILLER_51_237
*1537 FILLER_51_249
*1538 FILLER_51_261
*1539 FILLER_51_27
*1540 FILLER_51_273
*1541 FILLER_51_279
*1542 FILLER_51_281
*1543 FILLER_51_293
*1544 FILLER_51_3
*1545 FILLER_51_39
*1546 FILLER_51_51
*1547 FILLER_51_55
*1548 FILLER_51_57
*1549 FILLER_51_69
*1550 FILLER_51_81
*1551 FILLER_51_93
*1552 FILLER_52_109
*1553 FILLER_52_121
*1554 FILLER_52_133
*1555 FILLER_52_139
*1556 FILLER_52_141
*1557 FILLER_52_15
*1558 FILLER_52_153
*1559 FILLER_52_165
*1560 FILLER_52_177
*1561 FILLER_52_189
*1562 FILLER_52_195
*1563 FILLER_52_197
*1564 FILLER_52_209
*1565 FILLER_52_221
*1566 FILLER_52_233
*1567 FILLER_52_245
*1568 FILLER_52_251
*1569 FILLER_52_253
*1570 FILLER_52_265
*1571 FILLER_52_27
*1572 FILLER_52_277
*1573 FILLER_52_289
*1574 FILLER_52_29
*1575 FILLER_52_297
*1576 FILLER_52_3
*1577 FILLER_52_41
*1578 FILLER_52_53
*1579 FILLER_52_65
*1580 FILLER_52_77
*1581 FILLER_52_83
*1582 FILLER_52_85
*1583 FILLER_52_97
*1584 FILLER_53_105
*1585 FILLER_53_111