*SPEF "ieee 1481-1999"
*DESIGN "user_module_nickoe"
*DATE "11:11:11 Fri 11 11, 1111"
*VENDOR "OpenRCX"
*PROGRAM "Parallel Extraction"
*VERSION "1.0"
*DESIGN_FLOW "NAME_SCOPE LOCAL" "PIN_CAP NONE"
*DIVIDER /
*DELIMITER :
*BUS_DELIMITER []
*T_UNIT 1 NS
*C_UNIT 1 PF
*R_UNIT 1 OHM
*L_UNIT 1 HENRY

*NAME_MAP
*1 io_in[0]
*2 io_in[1]
*3 io_in[2]
*4 io_in[3]
*5 io_in[4]
*6 io_in[5]
*7 io_in[6]
*8 io_in[7]
*9 io_out[0]
*10 io_out[1]
*11 io_out[2]
*12 io_out[3]
*13 io_out[4]
*14 io_out[5]
*15 io_out[6]
*16 io_out[7]
*19 _000_
*20 _001_
*21 _002_
*22 _003_
*23 _004_
*24 _032_
*25 _033_
*26 _034_
*27 _035_
*28 _036_
*29 _037_
*30 _038_
*31 _039_
*32 _040_
*33 _041_
*34 _042_
*35 _043_
*36 _044_
*37 _045_
*38 _046_
*39 _047_
*40 _048_
*41 _049_
*42 _050_
*43 _051_
*44 _052_
*45 _053_
*46 _054_
*47 _055_
*48 _056_
*49 _057_
*50 _058_
*51 _059_
*52 _060_
*53 _061_
*54 _062_
*55 _063_
*56 _064_
*57 _065_
*58 _066_
*59 _067_
*60 _068_
*61 _069_
*62 _070_
*63 _071_
*64 _072_
*65 _073_
*66 _074_
*67 _075_
*68 _076_
*69 _077_
*70 _078_
*71 _079_
*72 _080_
*73 _081_
*74 _082_
*75 _083_
*76 _084_
*77 _085_
*78 _086_
*79 _087_
*80 _088_
*81 _089_
*82 _090_
*83 _091_
*84 _092_
*85 _093_
*86 _094_
*87 _095_
*88 _096_
*89 _097_
*90 _098_
*91 _099_
*92 _100_
*93 _101_
*94 _102_
*95 _103_
*96 _104_
*97 _105_
*98 _106_
*99 _107_
*100 _108_
*101 _109_
*102 _110_
*103 _111_
*104 _112_
*105 _113_
*106 _114_
*107 _115_
*108 _116_
*109 _117_
*110 _118_
*111 _119_
*112 _120_
*113 _121_
*114 _122_
*115 _123_
*116 _124_
*117 _125_
*118 _126_
*119 _127_
*120 _128_
*121 _129_
*122 _130_
*123 _131_
*124 _132_
*125 _133_
*126 _134_
*127 _135_
*128 _136_
*129 _137_
*130 _138_
*131 _139_
*132 chaser\[0\]
*133 chaser\[1\]
*134 chaser\[2\]
*135 chaser\[3\]
*136 chaser\[4\]
*137 chaser\[5\]
*138 chaser\[6\]
*139 chaser\[7\]
*140 clknet_0_io_in[0]
*141 clknet_3_0__leaf_io_in[0]
*142 clknet_3_1__leaf_io_in[0]
*143 clknet_3_2__leaf_io_in[0]
*144 clknet_3_3__leaf_io_in[0]
*145 clknet_3_4__leaf_io_in[0]
*146 clknet_3_5__leaf_io_in[0]
*147 clknet_3_6__leaf_io_in[0]
*148 clknet_3_7__leaf_io_in[0]
*149 count\[0\]
*150 count\[1\]
*151 count\[2\]
*152 count\[3\]
*153 count\[4\]
*154 count\[5\]
*155 count\[6\]
*156 count\[7\]
*157 count\[8\]
*158 count\[9\]
*159 counter\[0\]
*160 counter\[10\]
*161 counter\[11\]
*162 counter\[12\]
*163 counter\[13\]
*164 counter\[14\]
*165 counter\[15\]
*166 counter\[16\]
*167 counter\[17\]
*168 counter\[18\]
*169 counter\[19\]
*170 counter\[1\]
*171 counter\[20\]
*172 counter\[21\]
*173 counter\[22\]
*174 counter\[23\]
*175 counter\[24\]
*176 counter\[25\]
*177 counter\[26\]
*178 counter\[27\]
*179 counter\[28\]
*180 counter\[29\]
*181 counter\[2\]
*182 counter\[30\]
*183 counter\[31\]
*184 counter\[3\]
*185 counter\[4\]
*186 counter\[5\]
*187 counter\[6\]
*188 counter\[7\]
*189 counter\[8\]
*190 counter\[9\]
*191 int_rst
*192 net1
*193 net10
*194 net11
*195 net12
*196 net13
*197 net14
*198 net15
*199 net16
*200 net17
*201 net18
*202 net19
*203 net2
*204 net20
*205 net21
*206 net22
*207 net23
*208 net24
*209 net25
*210 net26
*211 net27
*212 net28
*213 net29
*214 net3
*215 net30
*216 net31
*217 net32
*218 net33
*219 net34
*220 net4
*221 net5
*222 net6
*223 net7
*224 net8
*225 net9
*226 pwm
*227 width\[0\]
*228 width\[1\]
*229 width\[2\]
*230 width\[3\]
*231 width\[4\]
*232 width\[5\]
*233 ANTENNA_1
*234 FILLER_0_107
*235 FILLER_0_111
*236 FILLER_0_113
*237 FILLER_0_131
*238 FILLER_0_139
*239 FILLER_0_141
*240 FILLER_0_159
*241 FILLER_0_167
*242 FILLER_0_169
*243 FILLER_0_181
*244 FILLER_0_193
*245 FILLER_0_197
*246 FILLER_0_209
*247 FILLER_0_221
*248 FILLER_0_225
*249 FILLER_0_237
*250 FILLER_0_249
*251 FILLER_0_253
*252 FILLER_0_26
*253 FILLER_0_265
*254 FILLER_0_277
*255 FILLER_0_281
*256 FILLER_0_29
*257 FILLER_0_293
*258 FILLER_0_3
*259 FILLER_0_37
*260 FILLER_0_54
*261 FILLER_0_57
*262 FILLER_0_62
*263 FILLER_0_82
*264 FILLER_0_85
*265 FILLER_0_9
*266 FILLER_10_116
*267 FILLER_10_128
*268 FILLER_10_141
*269 FILLER_10_153
*270 FILLER_10_165
*271 FILLER_10_177
*272 FILLER_10_189
*273 FILLER_10_195
*274 FILLER_10_197
*275 FILLER_10_209
*276 FILLER_10_221
*277 FILLER_10_233
*278 FILLER_10_245
*279 FILLER_10_251
*280 FILLER_10_253
*281 FILLER_10_26
*282 FILLER_10_265
*283 FILLER_10_277
*284 FILLER_10_289
*285 FILLER_10_29
*286 FILLER_10_297
*287 FILLER_10_3
*288 FILLER_10_34
*289 FILLER_10_41
*290 FILLER_10_45
*291 FILLER_10_62
*292 FILLER_10_82
*293 FILLER_10_85
*294 FILLER_10_9
*295 FILLER_10_97
*296 FILLER_11_105
*297 FILLER_11_111
*298 FILLER_11_113
*299 FILLER_11_131
*300 FILLER_11_143
*301 FILLER_11_155
*302 FILLER_11_167
*303 FILLER_11_169
*304 FILLER_11_181
*305 FILLER_11_193
*306 FILLER_11_205
*307 FILLER_11_217
*308 FILLER_11_223
*309 FILLER_11_225
*310 FILLER_11_237
*311 FILLER_11_249
*312 FILLER_11_261
*313 FILLER_11_273
*314 FILLER_11_279
*315 FILLER_11_28
*316 FILLER_11_281
*317 FILLER_11_293
*318 FILLER_11_3
*319 FILLER_11_48
*320 FILLER_11_57
*321 FILLER_11_62
*322 FILLER_11_70
*323 FILLER_11_8
*324 FILLER_11_93
*325 FILLER_12_113
*326 FILLER_12_125
*327 FILLER_12_137
*328 FILLER_12_141
*329 FILLER_12_153
*330 FILLER_12_165
*331 FILLER_12_177
*332 FILLER_12_189
*333 FILLER_12_195
*334 FILLER_12_197
*335 FILLER_12_209
*336 FILLER_12_221
*337 FILLER_12_23
*338 FILLER_12_233
*339 FILLER_12_245
*340 FILLER_12_251
*341 FILLER_12_253
*342 FILLER_12_265
*343 FILLER_12_27
*344 FILLER_12_277
*345 FILLER_12_289
*346 FILLER_12_29
*347 FILLER_12_297
*348 FILLER_12_3
*349 FILLER_12_34
*350 FILLER_12_42
*351 FILLER_12_65
*352 FILLER_12_77
*353 FILLER_12_83
*354 FILLER_12_85
*355 FILLER_13_110
*356 FILLER_13_113
*357 FILLER_13_125
*358 FILLER_13_137
*359 FILLER_13_149
*360 FILLER_13_161
*361 FILLER_13_167
*362 FILLER_13_169
*363 FILLER_13_181
*364 FILLER_13_193
*365 FILLER_13_205
*366 FILLER_13_21
*367 FILLER_13_217
*368 FILLER_13_223
*369 FILLER_13_225
*370 FILLER_13_237
*371 FILLER_13_249
*372 FILLER_13_261
*373 FILLER_13_27
*374 FILLER_13_273
*375 FILLER_13_279
*376 FILLER_13_281
*377 FILLER_13_293
*378 FILLER_13_3
*379 FILLER_13_31
*380 FILLER_13_51
*381 FILLER_13_55
*382 FILLER_13_57
*383 FILLER_13_69
*384 FILLER_13_73
*385 FILLER_13_90
*386 FILLER_14_113
*387 FILLER_14_125
*388 FILLER_14_137
*389 FILLER_14_141
*390 FILLER_14_153
*391 FILLER_14_165
*392 FILLER_14_177
*393 FILLER_14_189
*394 FILLER_14_195
*395 FILLER_14_197
*396 FILLER_14_209
*397 FILLER_14_22
*398 FILLER_14_221
*399 FILLER_14_233
*400 FILLER_14_245
*401 FILLER_14_251
*402 FILLER_14_253
*403 FILLER_14_265
*404 FILLER_14_277
*405 FILLER_14_289
*406 FILLER_14_29
*407 FILLER_14_297
*408 FILLER_14_3
*409 FILLER_14_35
*410 FILLER_14_52
*411 FILLER_14_80
*412 FILLER_14_85
*413 FILLER_14_90
*414 FILLER_14_96
*415 FILLER_15_110
*416 FILLER_15_113
*417 FILLER_15_125
*418 FILLER_15_137
*419 FILLER_15_149
*420 FILLER_15_161
*421 FILLER_15_167
*422 FILLER_15_169
*423 FILLER_15_181
*424 FILLER_15_193
*425 FILLER_15_205
*426 FILLER_15_21
*427 FILLER_15_217
*428 FILLER_15_223
*429 FILLER_15_225
*430 FILLER_15_237
*431 FILLER_15_249
*432 FILLER_15_261
*433 FILLER_15_273
*434 FILLER_15_279
*435 FILLER_15_28
*436 FILLER_15_281
*437 FILLER_15_293
*438 FILLER_15_3
*439 FILLER_15_32
*440 FILLER_15_38
*441 FILLER_15_45
*442 FILLER_15_54
*443 FILLER_15_57
*444 FILLER_15_75
*445 FILLER_15_87
*446 FILLER_15_93
*447 FILLER_16_104
*448 FILLER_16_111
*449 FILLER_16_123
*450 FILLER_16_135
*451 FILLER_16_139
*452 FILLER_16_141
*453 FILLER_16_153
*454 FILLER_16_165
*455 FILLER_16_177
*456 FILLER_16_189
*457 FILLER_16_195
*458 FILLER_16_197
*459 FILLER_16_209
*460 FILLER_16_21
*461 FILLER_16_221
*462 FILLER_16_233
*463 FILLER_16_245
*464 FILLER_16_251
*465 FILLER_16_253
*466 FILLER_16_265
*467 FILLER_16_27
*468 FILLER_16_277
*469 FILLER_16_289
*470 FILLER_16_29
*471 FILLER_16_297
*472 FILLER_16_3
*473 FILLER_16_36
*474 FILLER_16_48
*475 FILLER_16_72
*476 FILLER_16_85
*477 FILLER_17_105
*478 FILLER_17_111
*479 FILLER_17_113
*480 FILLER_17_12
*481 FILLER_17_125
*482 FILLER_17_132
*483 FILLER_17_144
*484 FILLER_17_156
*485 FILLER_17_169
*486 FILLER_17_181
*487 FILLER_17_193
*488 FILLER_17_205
*489 FILLER_17_217
*490 FILLER_17_223
*491 FILLER_17_225
*492 FILLER_17_237
*493 FILLER_17_24
*494 FILLER_17_249
*495 FILLER_17_261
*496 FILLER_17_273
*497 FILLER_17_279
*498 FILLER_17_281
*499 FILLER_17_293
*500 FILLER_17_3
*501 FILLER_17_36
*502 FILLER_17_48
*503 FILLER_17_57
*504 FILLER_17_69
*505 FILLER_17_81
*506 FILLER_17_93
*507 FILLER_18_103
*508 FILLER_18_115
*509 FILLER_18_127
*510 FILLER_18_139
*511 FILLER_18_141
*512 FILLER_18_153
*513 FILLER_18_165
*514 FILLER_18_177
*515 FILLER_18_185
*516 FILLER_18_19
*517 FILLER_18_193
*518 FILLER_18_197
*519 FILLER_18_209
*520 FILLER_18_221
*521 FILLER_18_233
*522 FILLER_18_245
*523 FILLER_18_251
*524 FILLER_18_253
*525 FILLER_18_265
*526 FILLER_18_27
*527 FILLER_18_277
*528 FILLER_18_289
*529 FILLER_18_29
*530 FILLER_18_297
*531 FILLER_18_3
*532 FILLER_18_41
*533 FILLER_18_53
*534 FILLER_18_61
*535 FILLER_18_70
*536 FILLER_18_8
*537 FILLER_18_82
*538 FILLER_18_85
*539 FILLER_18_89
*540 FILLER_18_96
*541 FILLER_19_105
*542 FILLER_19_11
*543 FILLER_19_111
*544 FILLER_19_113
*545 FILLER_19_121
*546 FILLER_19_128
*547 FILLER_19_145
*548 FILLER_19_157
*549 FILLER_19_165
*550 FILLER_19_169
*551 FILLER_19_181
*552 FILLER_19_193
*553 FILLER_19_205
*554 FILLER_19_217
*555 FILLER_19_223
*556 FILLER_19_225
*557 FILLER_19_23
*558 FILLER_19_237
*559 FILLER_19_249
*560 FILLER_19_261
*561 FILLER_19_273
*562 FILLER_19_279
*563 FILLER_19_281
*564 FILLER_19_293
*565 FILLER_19_3
*566 FILLER_19_35
*567 FILLER_19_43
*568 FILLER_19_49
*569 FILLER_19_55
*570 FILLER_19_57
*571 FILLER_19_69
*572 FILLER_19_81
*573 FILLER_19_93
*574 FILLER_1_110
*575 FILLER_1_113
*576 FILLER_1_131
*577 FILLER_1_151
*578 FILLER_1_163
*579 FILLER_1_167
*580 FILLER_1_169
*581 FILLER_1_181
*582 FILLER_1_193
*583 FILLER_1_205
*584 FILLER_1_211
*585 FILLER_1_22
*586 FILLER_1_223
*587 FILLER_1_225
*588 FILLER_1_237
*589 FILLER_1_249
*590 FILLER_1_261
*591 FILLER_1_273
*592 FILLER_1_279
*593 FILLER_1_281
*594 FILLER_1_293
*595 FILLER_1_3
*596 FILLER_1_33
*597 FILLER_1_54
*598 FILLER_1_57
*599 FILLER_1_62
*600 FILLER_1_82
*601 FILLER_20_105
*602 FILLER_20_114
*603 FILLER_20_126
*604 FILLER_20_138
*605 FILLER_20_141
*606 FILLER_20_153
*607 FILLER_20_165
*608 FILLER_20_177
*609 FILLER_20_189
*610 FILLER_20_195
*611 FILLER_20_197
*612 FILLER_20_20
*613 FILLER_20_209
*614 FILLER_20_221
*615 FILLER_20_233
*616 FILLER_20_245
*617 FILLER_20_251
*618 FILLER_20_253
*619 FILLER_20_265
*620 FILLER_20_277
*621 FILLER_20_289
*622 FILLER_20_29
*623 FILLER_20_297
*624 FILLER_20_3
*625 FILLER_20_41
*626 FILLER_20_48
*627 FILLER_20_52
*628 FILLER_20_57
*629 FILLER_20_69
*630 FILLER_20_8
*631 FILLER_20_81
*632 FILLER_20_85
*633 FILLER_20_97
*634 FILLER_21_105
*635 FILLER_21_111
*636 FILLER_21_113
*637 FILLER_21_125
*638 FILLER_21_137
*639 FILLER_21_149
*640 FILLER_21_15
*641 FILLER_21_161
*642 FILLER_21_167
*643 FILLER_21_169
*644 FILLER_21_181
*645 FILLER_21_193
*646 FILLER_21_205
*647 FILLER_21_217
*648 FILLER_21_223
*649 FILLER_21_225
*650 FILLER_21_237
*651 FILLER_21_249
*652 FILLER_21_261
*653 FILLER_21_27
*654 FILLER_21_273
*655 FILLER_21_279
*656 FILLER_21_281
*657 FILLER_21_293
*658 FILLER_21_3
*659 FILLER_21_39
*660 FILLER_21_43
*661 FILLER_21_47
*662 FILLER_21_54
*663 FILLER_21_57
*664 FILLER_21_69
*665 FILLER_21_81
*666 FILLER_21_93
*667 FILLER_22_109
*668 FILLER_22_121
*669 FILLER_22_125
*670 FILLER_22_137
*671 FILLER_22_141
*672 FILLER_22_146
*673 FILLER_22_15
*674 FILLER_22_153
*675 FILLER_22_165
*676 FILLER_22_177
*677 FILLER_22_189
*678 FILLER_22_195
*679 FILLER_22_197
*680 FILLER_22_209
*681 FILLER_22_221
*682 FILLER_22_233
*683 FILLER_22_245
*684 FILLER_22_251
*685 FILLER_22_253
*686 FILLER_22_265
*687 FILLER_22_27
*688 FILLER_22_277
*689 FILLER_22_289
*690 FILLER_22_29
*691 FILLER_22_297
*692 FILLER_22_3
*693 FILLER_22_41
*694 FILLER_22_50
*695 FILLER_22_62
*696 FILLER_22_74
*697 FILLER_22_82
*698 FILLER_22_85
*699 FILLER_22_97
*700 FILLER_23_102
*701 FILLER_23_110
*702 FILLER_23_113
*703 FILLER_23_125
*704 FILLER_23_137
*705 FILLER_23_149
*706 FILLER_23_15
*707 FILLER_23_161
*708 FILLER_23_167
*709 FILLER_23_169
*710 FILLER_23_181
*711 FILLER_23_193
*712 FILLER_23_205
*713 FILLER_23_217
*714 FILLER_23_223
*715 FILLER_23_225
*716 FILLER_23_237
*717 FILLER_23_249
*718 FILLER_23_261
*719 FILLER_23_27
*720 FILLER_23_273
*721 FILLER_23_279
*722 FILLER_23_281
*723 FILLER_23_293
*724 FILLER_23_3
*725 FILLER_23_39
*726 FILLER_23_51
*727 FILLER_23_55
*728 FILLER_23_57
*729 FILLER_23_66
*730 FILLER_23_78
*731 FILLER_23_90
*732 FILLER_24_118
*733 FILLER_24_126
*734 FILLER_24_130
*735 FILLER_24_138
*736 FILLER_24_141
*737 FILLER_24_153
*738 FILLER_24_165
*739 FILLER_24_17
*740 FILLER_24_177
*741 FILLER_24_189
*742 FILLER_24_195
*743 FILLER_24_197
*744 FILLER_24_209
*745 FILLER_24_221
*746 FILLER_24_233
*747 FILLER_24_245
*748 FILLER_24_25
*749 FILLER_24_251
*750 FILLER_24_253
*751 FILLER_24_265
*752 FILLER_24_277
*753 FILLER_24_289
*754 FILLER_24_29
*755 FILLER_24_297
*756 FILLER_24_3
*757 FILLER_24_37
*758 FILLER_24_46
*759 FILLER_24_58
*760 FILLER_24_70
*761 FILLER_24_8
*762 FILLER_24_82
*763 FILLER_24_85
*764 FILLER_24_93
*765 FILLER_24_97
*766 FILLER_25_111
*767 FILLER_25_113
*768 FILLER_25_125
*769 FILLER_25_132
*770 FILLER_25_14
*771 FILLER_25_143
*772 FILLER_25_155
*773 FILLER_25_167
*774 FILLER_25_169
*775 FILLER_25_181
*776 FILLER_25_193
*777 FILLER_25_20
*778 FILLER_25_205
*779 FILLER_25_217
*780 FILLER_25_223
*781 FILLER_25_225
*782 FILLER_25_237
*783 FILLER_25_249
*784 FILLER_25_26
*785 FILLER_25_261
*786 FILLER_25_273
*787 FILLER_25_279
*788 FILLER_25_281
*789 FILLER_25_293
*790 FILLER_25_3
*791 FILLER_25_38
*792 FILLER_25_46
*793 FILLER_25_50
*794 FILLER_25_57
*795 FILLER_25_63
*796 FILLER_25_75
*797 FILLER_25_87
*798 FILLER_25_99
*799 FILLER_26_10
*800 FILLER_26_105
*801 FILLER_26_113
*802 FILLER_26_125
*803 FILLER_26_137
*804 FILLER_26_141
*805 FILLER_26_153
*806 FILLER_26_165
*807 FILLER_26_177
*808 FILLER_26_189
*809 FILLER_26_195
*810 FILLER_26_197
*811 FILLER_26_209
*812 FILLER_26_22
*813 FILLER_26_221
*814 FILLER_26_233
*815 FILLER_26_245
*816 FILLER_26_251
*817 FILLER_26_253
*818 FILLER_26_265
*819 FILLER_26_277
*820 FILLER_26_289
*821 FILLER_26_29
*822 FILLER_26_297
*823 FILLER_26_3
*824 FILLER_26_41
*825 FILLER_26_55
*826 FILLER_26_67
*827 FILLER_26_79
*828 FILLER_26_83
*829 FILLER_26_85
*830 FILLER_26_97
*831 FILLER_27_105
*832 FILLER_27_111
*833 FILLER_27_113
*834 FILLER_27_125
*835 FILLER_27_137
*836 FILLER_27_149
*837 FILLER_27_161
*838 FILLER_27_167
*839 FILLER_27_169
*840 FILLER_27_181
*841 FILLER_27_193
*842 FILLER_27_20
*843 FILLER_27_205
*844 FILLER_27_217
*845 FILLER_27_223
*846 FILLER_27_225
*847 FILLER_27_237
*848 FILLER_27_249
*849 FILLER_27_261
*850 FILLER_27_273
*851 FILLER_27_279
*852 FILLER_27_281
*853 FILLER_27_293
*854 FILLER_27_3
*855 FILLER_27_32
*856 FILLER_27_44
*857 FILLER_27_57
*858 FILLER_27_69
*859 FILLER_27_8
*860 FILLER_27_81
*861 FILLER_27_93
*862 FILLER_28_109
*863 FILLER_28_121
*864 FILLER_28_133
*865 FILLER_28_139
*866 FILLER_28_141
*867 FILLER_28_15
*868 FILLER_28_153
*869 FILLER_28_165
*870 FILLER_28_177
*871 FILLER_28_189
*872 FILLER_28_195
*873 FILLER_28_197
*874 FILLER_28_209
*875 FILLER_28_221
*876 FILLER_28_233
*877 FILLER_28_245
*878 FILLER_28_251
*879 FILLER_28_253
*880 FILLER_28_265
*881 FILLER_28_27
*882 FILLER_28_277
*883 FILLER_28_289
*884 FILLER_28_29
*885 FILLER_28_297
*886 FILLER_28_3
*887 FILLER_28_41
*888 FILLER_28_45
*889 FILLER_28_49
*890 FILLER_28_61
*891 FILLER_28_73
*892 FILLER_28_81
*893 FILLER_28_85
*894 FILLER_28_97
*895 FILLER_29_100
*896 FILLER_29_113
*897 FILLER_29_125
*898 FILLER_29_137
*899 FILLER_29_149
*900 FILLER_29_15
*901 FILLER_29_161
*902 FILLER_29_167
*903 FILLER_29_169
*904 FILLER_29_181
*905 FILLER_29_193
*906 FILLER_29_205
*907 FILLER_29_217
*908 FILLER_29_223
*909 FILLER_29_225
*910 FILLER_29_237
*911 FILLER_29_249
*912 FILLER_29_261
*913 FILLER_29_27
*914 FILLER_29_273
*915 FILLER_29_279
*916 FILLER_29_281
*917 FILLER_29_293
*918 FILLER_29_3
*919 FILLER_29_39
*920 FILLER_29_51
*921 FILLER_29_55
*922 FILLER_29_57
*923 FILLER_29_65
*924 FILLER_29_72
*925 FILLER_29_84
*926 FILLER_29_88
*927 FILLER_2_100
*928 FILLER_2_121
*929 FILLER_2_133
*930 FILLER_2_139
*931 FILLER_2_141
*932 FILLER_2_153
*933 FILLER_2_165
*934 FILLER_2_177
*935 FILLER_2_189
*936 FILLER_2_195
*937 FILLER_2_197
*938 FILLER_2_209
*939 FILLER_2_22
*940 FILLER_2_221
*941 FILLER_2_233
*942 FILLER_2_245
*943 FILLER_2_251
*944 FILLER_2_253
*945 FILLER_2_265
*946 FILLER_2_277
*947 FILLER_2_289
*948 FILLER_2_29
*949 FILLER_2_297
*950 FILLER_2_3
*951 FILLER_2_34
*952 FILLER_2_42
*953 FILLER_2_65
*954 FILLER_2_77
*955 FILLER_2_83
*956 FILLER_2_85
*957 FILLER_2_94
*958 FILLER_30_104
*959 FILLER_30_116
*960 FILLER_30_128
*961 FILLER_30_141
*962 FILLER_30_15
*963 FILLER_30_153
*964 FILLER_30_165
*965 FILLER_30_177
*966 FILLER_30_189
*967 FILLER_30_195
*968 FILLER_30_197
*969 FILLER_30_209
*970 FILLER_30_221
*971 FILLER_30_233
*972 FILLER_30_245
*973 FILLER_30_251
*974 FILLER_30_253
*975 FILLER_30_265
*976 FILLER_30_27
*977 FILLER_30_273
*978 FILLER_30_279
*979 FILLER_30_29
*980 FILLER_30_291
*981 FILLER_30_3
*982 FILLER_30_37
*983 FILLER_30_41
*984 FILLER_30_48
*985 FILLER_30_60
*986 FILLER_30_68
*987 FILLER_30_72
*988 FILLER_30_82
*989 FILLER_30_85
*990 FILLER_30_92
*991 FILLER_31_110
*992 FILLER_31_113
*993 FILLER_31_125
*994 FILLER_31_137
*995 FILLER_31_149
*996 FILLER_31_15
*997 FILLER_31_161
*998 FILLER_31_167
*999 FILLER_31_169
*1000 FILLER_31_181
*1001 FILLER_31_193
*1002 FILLER_31_205
*1003 FILLER_31_217
*1004 FILLER_31_223
*1005 FILLER_31_225
*1006 FILLER_31_237
*1007 FILLER_31_249
*1008 FILLER_31_261
*1009 FILLER_31_27
*1010 FILLER_31_273
*1011 FILLER_31_279
*1012 FILLER_31_281
*1013 FILLER_31_293
*1014 FILLER_31_3
*1015 FILLER_31_39
*1016 FILLER_31_43
*1017 FILLER_31_49
*1018 FILLER_31_55
*1019 FILLER_31_57
*1020 FILLER_31_62
*1021 FILLER_31_74
*1022 FILLER_31_86
*1023 FILLER_31_98
*1024 FILLER_32_105
*1025 FILLER_32_111
*1026 FILLER_32_123
*1027 FILLER_32_135
*1028 FILLER_32_139
*1029 FILLER_32_141
*1030 FILLER_32_15
*1031 FILLER_32_153
*1032 FILLER_32_165
*1033 FILLER_32_177
*1034 FILLER_32_189
*1035 FILLER_32_195
*1036 FILLER_32_197
*1037 FILLER_32_203
*1038 FILLER_32_212
*1039 FILLER_32_224
*1040 FILLER_32_236
*1041 FILLER_32_248
*1042 FILLER_32_253
*1043 FILLER_32_265
*1044 FILLER_32_27
*1045 FILLER_32_277
*1046 FILLER_32_289
*1047 FILLER_32_29
*1048 FILLER_32_297
*1049 FILLER_32_3
*1050 FILLER_32_41
*1051 FILLER_32_53
*1052 FILLER_32_59
*1053 FILLER_32_71
*1054 FILLER_32_83
*1055 FILLER_32_85
*1056 FILLER_32_97
*1057 FILLER_33_105
*1058 FILLER_33_111
*1059 FILLER_33_113
*1060 FILLER_33_125
*1061 FILLER_33_137
*1062 FILLER_33_149
*1063 FILLER_33_15
*1064 FILLER_33_161
*1065 FILLER_33_167
*1066 FILLER_33_169
*1067 FILLER_33_181
*1068 FILLER_33_193
*1069 FILLER_33_205
*1070 FILLER_33_217
*1071 FILLER_33_223
*1072 FILLER_33_225
*1073 FILLER_33_237
*1074 FILLER_33_249
*1075 FILLER_33_261
*1076 FILLER_33_27
*1077 FILLER_33_273
*1078 FILLER_33_279
*1079 FILLER_33_281
*1080 FILLER_33_293
*1081 FILLER_33_3
*1082 FILLER_33_39
*1083 FILLER_33_51
*1084 FILLER_33_55
*1085 FILLER_33_57
*1086 FILLER_33_69
*1087 FILLER_33_81
*1088 FILLER_33_93
*1089 FILLER_34_109
*1090 FILLER_34_121
*1091 FILLER_34_133
*1092 FILLER_34_139
*1093 FILLER_34_141
*1094 FILLER_34_15
*1095 FILLER_34_153
*1096 FILLER_34_165
*1097 FILLER_34_177
*1098 FILLER_34_189
*1099 FILLER_34_195
*1100 FILLER_34_197
*1101 FILLER_34_209
*1102 FILLER_34_221
*1103 FILLER_34_233
*1104 FILLER_34_245
*1105 FILLER_34_251
*1106 FILLER_34_253
*1107 FILLER_34_265
*1108 FILLER_34_27
*1109 FILLER_34_277
*1110 FILLER_34_289
*1111 FILLER_34_29
*1112 FILLER_34_297
*1113 FILLER_34_3
*1114 FILLER_34_41
*1115 FILLER_34_53
*1116 FILLER_34_65
*1117 FILLER_34_77
*1118 FILLER_34_83
*1119 FILLER_34_85
*1120 FILLER_34_97
*1121 FILLER_35_106
*1122 FILLER_35_113
*1123 FILLER_35_125
*1124 FILLER_35_137
*1125 FILLER_35_149
*1126 FILLER_35_15
*1127 FILLER_35_161
*1128 FILLER_35_167
*1129 FILLER_35_169
*1130 FILLER_35_181
*1131 FILLER_35_193
*1132 FILLER_35_205
*1133 FILLER_35_217
*1134 FILLER_35_223
*1135 FILLER_35_225
*1136 FILLER_35_237
*1137 FILLER_35_249
*1138 FILLER_35_261
*1139 FILLER_35_27
*1140 FILLER_35_273
*1141 FILLER_35_279
*1142 FILLER_35_281
*1143 FILLER_35_293
*1144 FILLER_35_3
*1145 FILLER_35_39
*1146 FILLER_35_51
*1147 FILLER_35_55
*1148 FILLER_35_57
*1149 FILLER_35_69
*1150 FILLER_35_81
*1151 FILLER_35_93
*1152 FILLER_36_103
*1153 FILLER_36_113
*1154 FILLER_36_125
*1155 FILLER_36_137
*1156 FILLER_36_141
*1157 FILLER_36_15
*1158 FILLER_36_153
*1159 FILLER_36_165
*1160 FILLER_36_177
*1161 FILLER_36_189
*1162 FILLER_36_195
*1163 FILLER_36_197
*1164 FILLER_36_209
*1165 FILLER_36_221
*1166 FILLER_36_233
*1167 FILLER_36_245
*1168 FILLER_36_251
*1169 FILLER_36_253
*1170 FILLER_36_265
*1171 FILLER_36_27
*1172 FILLER_36_277
*1173 FILLER_36_289
*1174 FILLER_36_29
*1175 FILLER_36_297
*1176 FILLER_36_3
*1177 FILLER_36_41
*1178 FILLER_36_53
*1179 FILLER_36_65
*1180 FILLER_36_77
*1181 FILLER_36_83
*1182 FILLER_36_85
*1183 FILLER_36_97
*1184 FILLER_37_104
*1185 FILLER_37_113
*1186 FILLER_37_125
*1187 FILLER_37_137
*1188 FILLER_37_149
*1189 FILLER_37_15
*1190 FILLER_37_161
*1191 FILLER_37_167
*1192 FILLER_37_169
*1193 FILLER_37_181
*1194 FILLER_37_193
*1195 FILLER_37_201
*1196 FILLER_37_213
*1197 FILLER_37_221
*1198 FILLER_37_225
*1199 FILLER_37_237
*1200 FILLER_37_249
*1201 FILLER_37_261
*1202 FILLER_37_27
*1203 FILLER_37_273
*1204 FILLER_37_279
*1205 FILLER_37_281
*1206 FILLER_37_293
*1207 FILLER_37_3
*1208 FILLER_37_39
*1209 FILLER_37_45
*1210 FILLER_37_54
*1211 FILLER_37_57
*1212 FILLER_37_64
*1213 FILLER_37_76
*1214 FILLER_37_88
*1215 FILLER_37_96
*1216 FILLER_38_106
*1217 FILLER_38_116
*1218 FILLER_38_123
*1219 FILLER_38_132
*1220 FILLER_38_141
*1221 FILLER_38_148
*1222 FILLER_38_15
*1223 FILLER_38_160
*1224 FILLER_38_172
*1225 FILLER_38_180
*1226 FILLER_38_184
*1227 FILLER_38_197
*1228 FILLER_38_209
*1229 FILLER_38_221
*1230 FILLER_38_233
*1231 FILLER_38_245
*1232 FILLER_38_251
*1233 FILLER_38_253
*1234 FILLER_38_265
*1235 FILLER_38_27
*1236 FILLER_38_277
*1237 FILLER_38_289
*1238 FILLER_38_29
*1239 FILLER_38_297
*1240 FILLER_38_3
*1241 FILLER_38_41
*1242 FILLER_38_53
*1243 FILLER_38_65
*1244 FILLER_38_77
*1245 FILLER_38_83
*1246 FILLER_38_85
*1247 FILLER_38_94
*1248 FILLER_39_101
*1249 FILLER_39_109
*1250 FILLER_39_113
*1251 FILLER_39_128
*1252 FILLER_39_140
*1253 FILLER_39_15
*1254 FILLER_39_152
*1255 FILLER_39_164
*1256 FILLER_39_169
*1257 FILLER_39_181
*1258 FILLER_39_193
*1259 FILLER_39_205
*1260 FILLER_39_217
*1261 FILLER_39_223
*1262 FILLER_39_225
*1263 FILLER_39_237
*1264 FILLER_39_249
*1265 FILLER_39_261
*1266 FILLER_39_27
*1267 FILLER_39_273
*1268 FILLER_39_279
*1269 FILLER_39_281
*1270 FILLER_39_293
*1271 FILLER_39_3
*1272 FILLER_39_35
*1273 FILLER_39_47
*1274 FILLER_39_55
*1275 FILLER_39_57
*1276 FILLER_39_67
*1277 FILLER_39_77
*1278 FILLER_39_89
*1279 FILLER_3_110
*1280 FILLER_3_113
*1281 FILLER_3_131
*1282 FILLER_3_143
*1283 FILLER_3_155
*1284 FILLER_3_167
*1285 FILLER_3_169
*1286 FILLER_3_181
*1287 FILLER_3_193
*1288 FILLER_3_205
*1289 FILLER_3_217
*1290 FILLER_3_223
*1291 FILLER_3_225
*1292 FILLER_3_237
*1293 FILLER_3_249
*1294 FILLER_3_25
*1295 FILLER_3_261
*1296 FILLER_3_273
*1297 FILLER_3_279
*1298 FILLER_3_281
*1299 FILLER_3_293
*1300 FILLER_3_3
*1301 FILLER_3_32
*1302 FILLER_3_54
*1303 FILLER_3_57
*1304 FILLER_3_62
*1305 FILLER_3_82
*1306 FILLER_3_89
*1307 FILLER_40_109
*1308 FILLER_40_129
*1309 FILLER_40_137
*1310 FILLER_40_141
*1311 FILLER_40_15
*1312 FILLER_40_153
*1313 FILLER_40_161
*1314 FILLER_40_169
*1315 FILLER_40_181
*1316 FILLER_40_193
*1317 FILLER_40_197
*1318 FILLER_40_209
*1319 FILLER_40_217
*1320 FILLER_40_223
*1321 FILLER_40_235
*1322 FILLER_40_247
*1323 FILLER_40_251
*1324 FILLER_40_253
*1325 FILLER_40_265
*1326 FILLER_40_27
*1327 FILLER_40_277
*1328 FILLER_40_289
*1329 FILLER_40_29
*1330 FILLER_40_297
*1331 FILLER_40_3
*1332 FILLER_40_37
*1333 FILLER_40_47
*1334 FILLER_40_59
*1335 FILLER_40_67
*1336 FILLER_40_76
*1337 FILLER_40_85
*1338 FILLER_40_97
*1339 FILLER_41_104
*1340 FILLER_41_113
*1341 FILLER_41_124
*1342 FILLER_41_136
*1343 FILLER_41_148
*1344 FILLER_41_15
*1345 FILLER_41_160
*1346 FILLER_41_169
*1347 FILLER_41_181
*1348 FILLER_41_193
*1349 FILLER_41_205
*1350 FILLER_41_217
*1351 FILLER_41_223
*1352 FILLER_41_225
*1353 FILLER_41_237
*1354 FILLER_41_249
*1355 FILLER_41_261
*1356 FILLER_41_266
*1357 FILLER_41_27
*1358 FILLER_41_278
*1359 FILLER_41_281
*1360 FILLER_41_293
*1361 FILLER_41_3
*1362 FILLER_41_39
*1363 FILLER_41_49
*1364 FILLER_41_55
*1365 FILLER_41_57
*1366 FILLER_41_63
*1367 FILLER_41_71
*1368 FILLER_41_80
*1369 FILLER_41_92
*1370 FILLER_42_109
*1371 FILLER_42_121
*1372 FILLER_42_133
*1373 FILLER_42_139
*1374 FILLER_42_141
*1375 FILLER_42_15
*1376 FILLER_42_153
*1377 FILLER_42_165
*1378 FILLER_42_177
*1379 FILLER_42_181
*1380 FILLER_42_189
*1381 FILLER_42_195
*1382 FILLER_42_197
*1383 FILLER_42_209
*1384 FILLER_42_221
*1385 FILLER_42_233
*1386 FILLER_42_245
*1387 FILLER_42_251
*1388 FILLER_42_253
*1389 FILLER_42_265
*1390 FILLER_42_27
*1391 FILLER_42_277
*1392 FILLER_42_289
*1393 FILLER_42_29
*1394 FILLER_42_297
*1395 FILLER_42_3
*1396 FILLER_42_41
*1397 FILLER_42_53
*1398 FILLER_42_65
*1399 FILLER_42_77
*1400 FILLER_42_83
*1401 FILLER_42_85
*1402 FILLER_42_97
*1403 FILLER_43_105
*1404 FILLER_43_11
*1405 FILLER_43_111
*1406 FILLER_43_113
*1407 FILLER_43_125
*1408 FILLER_43_137
*1409 FILLER_43_149
*1410 FILLER_43_161
*1411 FILLER_43_167
*1412 FILLER_43_169
*1413 FILLER_43_181
*1414 FILLER_43_193
*1415 FILLER_43_205
*1416 FILLER_43_217
*1417 FILLER_43_223
*1418 FILLER_43_225
*1419 FILLER_43_23
*1420 FILLER_43_237
*1421 FILLER_43_249
*1422 FILLER_43_261
*1423 FILLER_43_273
*1424 FILLER_43_279
*1425 FILLER_43_281
*1426 FILLER_43_293
*1427 FILLER_43_3
*1428 FILLER_43_34
*1429 FILLER_43_46
*1430 FILLER_43_54
*1431 FILLER_43_57
*1432 FILLER_43_69
*1433 FILLER_43_81
*1434 FILLER_43_93
*1435 FILLER_44_109
*1436 FILLER_44_11
*1437 FILLER_44_121
*1438 FILLER_44_133
*1439 FILLER_44_139
*1440 FILLER_44_141
*1441 FILLER_44_153
*1442 FILLER_44_165
*1443 FILLER_44_177
*1444 FILLER_44_189
*1445 FILLER_44_19
*1446 FILLER_44_195
*1447 FILLER_44_197
*1448 FILLER_44_210
*1449 FILLER_44_222
*1450 FILLER_44_234
*1451 FILLER_44_246
*1452 FILLER_44_253
*1453 FILLER_44_265
*1454 FILLER_44_27
*1455 FILLER_44_277
*1456 FILLER_44_289
*1457 FILLER_44_29
*1458 FILLER_44_297
*1459 FILLER_44_3
*1460 FILLER_44_39
*1461 FILLER_44_51
*1462 FILLER_44_63
*1463 FILLER_44_75
*1464 FILLER_44_83
*1465 FILLER_44_85
*1466 FILLER_44_97
*1467 FILLER_45_111
*1468 FILLER_45_113
*1469 FILLER_45_125
*1470 FILLER_45_137
*1471 FILLER_45_149
*1472 FILLER_45_161
*1473 FILLER_45_167
*1474 FILLER_45_169
*1475 FILLER_45_18
*1476 FILLER_45_181
*1477 FILLER_45_193
*1478 FILLER_45_205
*1479 FILLER_45_217
*1480 FILLER_45_223
*1481 FILLER_45_225
*1482 FILLER_45_237
*1483 FILLER_45_249
*1484 FILLER_45_261
*1485 FILLER_45_273
*1486 FILLER_45_279
*1487 FILLER_45_281
*1488 FILLER_45_293
*1489 FILLER_45_3
*1490 FILLER_45_30
*1491 FILLER_45_36
*1492 FILLER_45_48
*1493 FILLER_45_57
*1494 FILLER_45_69
*1495 FILLER_45_86
*1496 FILLER_45_99
*1497 FILLER_46_109
*1498 FILLER_46_121
*1499 FILLER_46_133
*1500 FILLER_46_139
*1501 FILLER_46_14
*1502 FILLER_46_141
*1503 FILLER_46_153
*1504 FILLER_46_165
*1505 FILLER_46_177
*1506 FILLER_46_189
*1507 FILLER_46_195
*1508 FILLER_46_197
*1509 FILLER_46_209
*1510 FILLER_46_221
*1511 FILLER_46_233
*1512 FILLER_46_245
*1513 FILLER_46_251
*1514 FILLER_46_253
*1515 FILLER_46_26
*1516 FILLER_46_265
*1517 FILLER_46_277
*1518 FILLER_46_289
*1519 FILLER_46_29
*1520 FILLER_46_297
*1521 FILLER_46_3
*1522 FILLER_46_36
*1523 FILLER_46_48
*1524 FILLER_46_60
*1525 FILLER_46_72
*1526 FILLER_46_85
*1527 FILLER_46_9
*1528 FILLER_46_97
*1529 FILLER_47_101
*1530 FILLER_47_106
*1531 FILLER_47_11
*1532 FILLER_47_113
*1533 FILLER_47_125
*1534 FILLER_47_137
*1535 FILLER_47_149
*1536 FILLER_47_16
*1537 FILLER_47_161
*1538 FILLER_47_167
*1539 FILLER_47_169
*1540 FILLER_47_181
*1541 FILLER_47_193
*1542 FILLER_47_205
*1543 FILLER_47_217
*1544 FILLER_47_223
*1545 FILLER_47_225
*1546 FILLER_47_233
*1547 FILLER_47_245
*1548 FILLER_47_257
*1549 FILLER_47_269
*1550 FILLER_47_277
*1551 FILLER_47_28
*1552 FILLER_47_281
*1553 FILLER_47_293
*1554 FILLER_47_3
*1555 FILLER_47_40
*1556 FILLER_47_52
*1557 FILLER_47_57
*1558 FILLER_47_69
*1559 FILLER_47_81
*1560 FILLER_47_93
*1561 FILLER_48_109
*1562 FILLER_48_121
*1563 FILLER_48_133
*1564 FILLER_48_139
*1565 FILLER_48_141
*1566 FILLER_48_15
*1567 FILLER_48_153
*1568 FILLER_48_165
*1569 FILLER_48_177
*1570 FILLER_48_189
*1571 FILLER_48_195
*1572 FILLER_48_197
*1573 FILLER_48_209
*1574 FILLER_48_221
*1575 FILLER_48_233
*1576 FILLER_48_245
*1577 FILLER_48_251
*1578 FILLER_48_253
*1579 FILLER_48_265
*1580 FILLER_48_27
*1581 FILLER_48_277
*1582 FILLER_48_289
*1583 FILLER_48_29
*1584 FILLER_48_297
*1585 FILLER_48_3
*1586 FILLER_48_39
*1587 FILLER_48_47
*1588 FILLER_48_59
*1589 FILLER_48_71
*1590 FILLER_48_83
*1591 FILLER_48_85
*1592 FILLER_48_97
*1593 FILLER_49_105
*1594 FILLER_49_111
*1595 FILLER_49_113
*1596 FILLER_49_124
*1597 FILLER_49_136
*1598 FILLER_49_148
*1599 FILLER_49_15
*1600 FILLER_49_160
*1601 FILLER_49_169
*1602 FILLER_49_181
*1603 FILLER_49_193
*1604 FILLER_49_205
*1605 FILLER_49_217
*1606 FILLER_49_223
*1607 FILLER_49_225
*1608 FILLER_49_237
*1609 FILLER_49_249
*1610 FILLER_49_261
*1611 FILLER_49_27
*1612 FILLER_49_273
*1613 FILLER_49_279
*1614 FILLER_49_281
*1615 FILLER_49_293
*1616 FILLER_49_3
*1617 FILLER_49_36
*1618 FILLER_49_48
*1619 FILLER_49_57
*1620 FILLER_49_69
*1621 FILLER_49_81
*1622 FILLER_49_93
*1623 FILLER_4_108
*1624 FILLER_4_128
*1625 FILLER_4_141
*1626 FILLER_4_153
*1627 FILLER_4_165
*1628 FILLER_4_177
*1629 FILLER_4_189
*1630 FILLER_4_195
*1631 FILLER_4_197
*1632 FILLER_4_209
*1633 FILLER_4_221
*1634 FILLER_4_233
*1635 FILLER_4_245
*1636 FILLER_4_251