*SPEF "ieee 1481-1999"
*DESIGN "user_module_349901899339661908"
*DATE "11:11:11 Fri 11 11, 1111"
*VENDOR "OpenRCX"
*PROGRAM "Parallel Extraction"
*VERSION "1.0"
*DESIGN_FLOW "NAME_SCOPE LOCAL" "PIN_CAP NONE"
*DIVIDER /
*DELIMITER :
*BUS_DELIMITER []
*T_UNIT 1 NS
*C_UNIT 1 PF
*R_UNIT 1 OHM
*L_UNIT 1 HENRY

*NAME_MAP
*1 io_in[0]
*2 io_in[1]
*3 io_in[2]
*4 io_in[3]
*5 io_in[4]
*6 io_in[5]
*7 io_in[6]
*8 io_in[7]
*9 io_out[0]
*10 io_out[1]
*11 io_out[2]
*12 io_out[3]
*13 io_out[4]
*14 io_out[5]
*15 io_out[6]
*16 io_out[7]
*19 _000_
*20 _001_
*21 _002_
*22 _003_
*23 _004_
*24 _005_
*25 _006_
*26 _007_
*27 _008_
*28 _009_
*29 _010_
*30 _011_
*31 _012_
*32 _013_
*33 _014_
*34 _015_
*35 _016_
*36 _017_
*37 _018_
*38 _019_
*39 _020_
*40 _021_
*41 _022_
*42 _023_
*43 _024_
*44 _025_
*45 _026_
*46 _027_
*47 _028_
*48 _029_
*49 _030_
*50 _031_
*51 _032_
*52 _033_
*53 _034_
*54 _035_
*55 _036_
*56 _037_
*57 _038_
*58 _039_
*59 _040_
*60 _041_
*61 _042_
*62 _043_
*63 _044_
*64 _045_
*65 _046_
*66 _047_
*67 _048_
*68 _049_
*69 _050_
*70 _051_
*71 _052_
*72 _053_
*73 _054_
*74 _055_
*75 _056_
*76 _057_
*77 _058_
*78 _059_
*79 _060_
*80 _061_
*81 _062_
*82 _063_
*83 _064_
*84 _065_
*85 _066_
*86 _067_
*87 _068_
*88 _069_
*89 _070_
*90 _071_
*91 _072_
*92 _073_
*93 _074_
*94 _075_
*95 _076_
*96 _077_
*97 _078_
*98 _079_
*99 _080_
*100 _081_
*101 _082_
*102 _083_
*103 _084_
*104 _085_
*105 _086_
*106 _087_
*107 _088_
*108 _089_
*109 _090_
*110 _091_
*111 _092_
*112 _093_
*113 _094_
*114 _095_
*115 _096_
*116 _097_
*117 _098_
*118 _099_
*119 _100_
*120 _101_
*121 _102_
*122 _103_
*123 _104_
*124 _105_
*125 _106_
*126 _107_
*127 _108_
*128 _109_
*129 _110_
*130 _111_
*131 _112_
*132 _113_
*133 _114_
*134 clknet_0_io_in[0]
*135 clknet_1_0__leaf_io_in[0]
*136 clknet_1_1__leaf_io_in[0]
*137 flipflop10\.q
*138 flipflop11\.q
*139 flipflop12\.q
*140 flipflop13\.q
*141 flipflop14\.q
*142 flipflop15\.q
*143 flipflop16\.q
*144 flipflop17\.q
*145 flipflop2\.q
*146 flipflop3\.q
*147 flipflop4\.q
*148 flipflop5\.q
*149 flipflop6\.q
*150 flipflop7\.q
*151 flipflop8\.q
*152 flipflop9\.q
*153 gate142\.out
*154 gate163\.out
*155 gate172\.out
*156 gate186\.out
*157 gate192\.out
*158 gate199\.out
*159 gate200\.out
*160 gate206\.out
*161 net1
*162 net2
*163 net3
*164 net4
*165 net5
*166 net6
*167 FILLER_0_101
*168 FILLER_0_108
*169 FILLER_0_113
*170 FILLER_0_125
*171 FILLER_0_137
*172 FILLER_0_141
*173 FILLER_0_153
*174 FILLER_0_165
*175 FILLER_0_169
*176 FILLER_0_181
*177 FILLER_0_193
*178 FILLER_0_197
*179 FILLER_0_209
*180 FILLER_0_221
*181 FILLER_0_225
*182 FILLER_0_237
*183 FILLER_0_249
*184 FILLER_0_253
*185 FILLER_0_26
*186 FILLER_0_265
*187 FILLER_0_277
*188 FILLER_0_281
*189 FILLER_0_29
*190 FILLER_0_293
*191 FILLER_0_3
*192 FILLER_0_48
*193 FILLER_0_57
*194 FILLER_0_76
*195 FILLER_0_85
*196 FILLER_0_93
*197 FILLER_10_103
*198 FILLER_10_113
*199 FILLER_10_121
*200 FILLER_10_130
*201 FILLER_10_138
*202 FILLER_10_141
*203 FILLER_10_15
*204 FILLER_10_153
*205 FILLER_10_165
*206 FILLER_10_177
*207 FILLER_10_189
*208 FILLER_10_195
*209 FILLER_10_197
*210 FILLER_10_209
*211 FILLER_10_221
*212 FILLER_10_233
*213 FILLER_10_245
*214 FILLER_10_251
*215 FILLER_10_253
*216 FILLER_10_265
*217 FILLER_10_27
*218 FILLER_10_277
*219 FILLER_10_289
*220 FILLER_10_29
*221 FILLER_10_297
*222 FILLER_10_3
*223 FILLER_10_54
*224 FILLER_10_58
*225 FILLER_10_63
*226 FILLER_10_75
*227 FILLER_10_82
*228 FILLER_10_85
*229 FILLER_10_95
*230 FILLER_11_101
*231 FILLER_11_109
*232 FILLER_11_11
*233 FILLER_11_113
*234 FILLER_11_117
*235 FILLER_11_125
*236 FILLER_11_135
*237 FILLER_11_147
*238 FILLER_11_159
*239 FILLER_11_167
*240 FILLER_11_169
*241 FILLER_11_181
*242 FILLER_11_193
*243 FILLER_11_205
*244 FILLER_11_217
*245 FILLER_11_223
*246 FILLER_11_225
*247 FILLER_11_237
*248 FILLER_11_249
*249 FILLER_11_261
*250 FILLER_11_273
*251 FILLER_11_279
*252 FILLER_11_281
*253 FILLER_11_293
*254 FILLER_11_3
*255 FILLER_11_32
*256 FILLER_11_44
*257 FILLER_11_57
*258 FILLER_11_77
*259 FILLER_11_89
*260 FILLER_12_109
*261 FILLER_12_121
*262 FILLER_12_133
*263 FILLER_12_139
*264 FILLER_12_141
*265 FILLER_12_153
*266 FILLER_12_165
*267 FILLER_12_177
*268 FILLER_12_189
*269 FILLER_12_195
*270 FILLER_12_197
*271 FILLER_12_209
*272 FILLER_12_21
*273 FILLER_12_221
*274 FILLER_12_233
*275 FILLER_12_245
*276 FILLER_12_251
*277 FILLER_12_253
*278 FILLER_12_265
*279 FILLER_12_27
*280 FILLER_12_277
*281 FILLER_12_289
*282 FILLER_12_29
*283 FILLER_12_297
*284 FILLER_12_3
*285 FILLER_12_41
*286 FILLER_12_53
*287 FILLER_12_65
*288 FILLER_12_77
*289 FILLER_12_83
*290 FILLER_12_85
*291 FILLER_12_9
*292 FILLER_12_97
*293 FILLER_13_103
*294 FILLER_13_111
*295 FILLER_13_113
*296 FILLER_13_125
*297 FILLER_13_137
*298 FILLER_13_149
*299 FILLER_13_15
*300 FILLER_13_161
*301 FILLER_13_167
*302 FILLER_13_169
*303 FILLER_13_181
*304 FILLER_13_193
*305 FILLER_13_205
*306 FILLER_13_21
*307 FILLER_13_217
*308 FILLER_13_223
*309 FILLER_13_225
*310 FILLER_13_237
*311 FILLER_13_249
*312 FILLER_13_261
*313 FILLER_13_273
*314 FILLER_13_279
*315 FILLER_13_281
*316 FILLER_13_29
*317 FILLER_13_293
*318 FILLER_13_3
*319 FILLER_13_41
*320 FILLER_13_53
*321 FILLER_13_57
*322 FILLER_13_64
*323 FILLER_13_68
*324 FILLER_13_72
*325 FILLER_13_79
*326 FILLER_13_83
*327 FILLER_13_91
*328 FILLER_14_109
*329 FILLER_14_11
*330 FILLER_14_121
*331 FILLER_14_133
*332 FILLER_14_139
*333 FILLER_14_141
*334 FILLER_14_153
*335 FILLER_14_165
*336 FILLER_14_177
*337 FILLER_14_189
*338 FILLER_14_195
*339 FILLER_14_197
*340 FILLER_14_209
*341 FILLER_14_221
*342 FILLER_14_23
*343 FILLER_14_233
*344 FILLER_14_245
*345 FILLER_14_251
*346 FILLER_14_253
*347 FILLER_14_265
*348 FILLER_14_27
*349 FILLER_14_277
*350 FILLER_14_289
*351 FILLER_14_29
*352 FILLER_14_297
*353 FILLER_14_3
*354 FILLER_14_41
*355 FILLER_14_47
*356 FILLER_14_51
*357 FILLER_14_60
*358 FILLER_14_68
*359 FILLER_14_77
*360 FILLER_14_83
*361 FILLER_14_85
*362 FILLER_14_96
*363 FILLER_15_100
*364 FILLER_15_113
*365 FILLER_15_125
*366 FILLER_15_137
*367 FILLER_15_149
*368 FILLER_15_15
*369 FILLER_15_161
*370 FILLER_15_167
*371 FILLER_15_169
*372 FILLER_15_181
*373 FILLER_15_193
*374 FILLER_15_205
*375 FILLER_15_217
*376 FILLER_15_223
*377 FILLER_15_225
*378 FILLER_15_237
*379 FILLER_15_249
*380 FILLER_15_261
*381 FILLER_15_27
*382 FILLER_15_273
*383 FILLER_15_279
*384 FILLER_15_281
*385 FILLER_15_293
*386 FILLER_15_3
*387 FILLER_15_42
*388 FILLER_15_54
*389 FILLER_15_57
*390 FILLER_15_63
*391 FILLER_15_75
*392 FILLER_15_88
*393 FILLER_16_102
*394 FILLER_16_110
*395 FILLER_16_122
*396 FILLER_16_134
*397 FILLER_16_141
*398 FILLER_16_15
*399 FILLER_16_153
*400 FILLER_16_165
*401 FILLER_16_177
*402 FILLER_16_189
*403 FILLER_16_195
*404 FILLER_16_197
*405 FILLER_16_209
*406 FILLER_16_221
*407 FILLER_16_233
*408 FILLER_16_245
*409 FILLER_16_251
*410 FILLER_16_253
*411 FILLER_16_265
*412 FILLER_16_27
*413 FILLER_16_277
*414 FILLER_16_289
*415 FILLER_16_29
*416 FILLER_16_297
*417 FILLER_16_3
*418 FILLER_16_40
*419 FILLER_16_48
*420 FILLER_16_52
*421 FILLER_16_60
*422 FILLER_16_68
*423 FILLER_16_78
*424 FILLER_16_85
*425 FILLER_16_94
*426 FILLER_17_107
*427 FILLER_17_111
*428 FILLER_17_113
*429 FILLER_17_124
*430 FILLER_17_136
*431 FILLER_17_148
*432 FILLER_17_15
*433 FILLER_17_160
*434 FILLER_17_169
*435 FILLER_17_181
*436 FILLER_17_193
*437 FILLER_17_205
*438 FILLER_17_217
*439 FILLER_17_223
*440 FILLER_17_225
*441 FILLER_17_237
*442 FILLER_17_249
*443 FILLER_17_261
*444 FILLER_17_27
*445 FILLER_17_273
*446 FILLER_17_279
*447 FILLER_17_281
*448 FILLER_17_293
*449 FILLER_17_3
*450 FILLER_17_38
*451 FILLER_17_50
*452 FILLER_17_57
*453 FILLER_17_67
*454 FILLER_17_75
*455 FILLER_17_95
*456 FILLER_18_106
*457 FILLER_18_118
*458 FILLER_18_130
*459 FILLER_18_138
*460 FILLER_18_141
*461 FILLER_18_15
*462 FILLER_18_153
*463 FILLER_18_165
*464 FILLER_18_177
*465 FILLER_18_189
*466 FILLER_18_195
*467 FILLER_18_197
*468 FILLER_18_20
*469 FILLER_18_209
*470 FILLER_18_221
*471 FILLER_18_233
*472 FILLER_18_245
*473 FILLER_18_251
*474 FILLER_18_253
*475 FILLER_18_265
*476 FILLER_18_277
*477 FILLER_18_289
*478 FILLER_18_29
*479 FILLER_18_297
*480 FILLER_18_3
*481 FILLER_18_50
*482 FILLER_18_58
*483 FILLER_18_70
*484 FILLER_18_82
*485 FILLER_18_85
*486 FILLER_18_95
*487 FILLER_19_100
*488 FILLER_19_104
*489 FILLER_19_113
*490 FILLER_19_125
*491 FILLER_19_137
*492 FILLER_19_149
*493 FILLER_19_15
*494 FILLER_19_161
*495 FILLER_19_167
*496 FILLER_19_169
*497 FILLER_19_181
*498 FILLER_19_193
*499 FILLER_19_205
*500 FILLER_19_217
*501 FILLER_19_223
*502 FILLER_19_225
*503 FILLER_19_237
*504 FILLER_19_249
*505 FILLER_19_261
*506 FILLER_19_27
*507 FILLER_19_273
*508 FILLER_19_279
*509 FILLER_19_281
*510 FILLER_19_293
*511 FILLER_19_3
*512 FILLER_19_35
*513 FILLER_19_45
*514 FILLER_19_53
*515 FILLER_19_57
*516 FILLER_19_62
*517 FILLER_19_68
*518 FILLER_19_72
*519 FILLER_19_84
*520 FILLER_19_96
*521 FILLER_1_101
*522 FILLER_1_110
*523 FILLER_1_113
*524 FILLER_1_121
*525 FILLER_1_128
*526 FILLER_1_137
*527 FILLER_1_149
*528 FILLER_1_15
*529 FILLER_1_161
*530 FILLER_1_167
*531 FILLER_1_169
*532 FILLER_1_181
*533 FILLER_1_193
*534 FILLER_1_205
*535 FILLER_1_217
*536 FILLER_1_223
*537 FILLER_1_225
*538 FILLER_1_237
*539 FILLER_1_249
*540 FILLER_1_261
*541 FILLER_1_273
*542 FILLER_1_279
*543 FILLER_1_281
*544 FILLER_1_293
*545 FILLER_1_3
*546 FILLER_1_36
*547 FILLER_1_43
*548 FILLER_1_54
*549 FILLER_1_57
*550 FILLER_1_75
*551 FILLER_1_86
*552 FILLER_20_103
*553 FILLER_20_115
*554 FILLER_20_127
*555 FILLER_20_139
*556 FILLER_20_141
*557 FILLER_20_153
*558 FILLER_20_165
*559 FILLER_20_177
*560 FILLER_20_189
*561 FILLER_20_195
*562 FILLER_20_197
*563 FILLER_20_209
*564 FILLER_20_221
*565 FILLER_20_233
*566 FILLER_20_24
*567 FILLER_20_245
*568 FILLER_20_251
*569 FILLER_20_253
*570 FILLER_20_265
*571 FILLER_20_277
*572 FILLER_20_289
*573 FILLER_20_29
*574 FILLER_20_297
*575 FILLER_20_3
*576 FILLER_20_41
*577 FILLER_20_53
*578 FILLER_20_65
*579 FILLER_20_80
*580 FILLER_20_85
*581 FILLER_20_9
*582 FILLER_20_94
*583 FILLER_21_105
*584 FILLER_21_111
*585 FILLER_21_113
*586 FILLER_21_125
*587 FILLER_21_129
*588 FILLER_21_133
*589 FILLER_21_145
*590 FILLER_21_15
*591 FILLER_21_157
*592 FILLER_21_165
*593 FILLER_21_169
*594 FILLER_21_181
*595 FILLER_21_193
*596 FILLER_21_205
*597 FILLER_21_217
*598 FILLER_21_223
*599 FILLER_21_225
*600 FILLER_21_237
*601 FILLER_21_249
*602 FILLER_21_25
*603 FILLER_21_261
*604 FILLER_21_273
*605 FILLER_21_279
*606 FILLER_21_281
*607 FILLER_21_293
*608 FILLER_21_3
*609 FILLER_21_37
*610 FILLER_21_49
*611 FILLER_21_55
*612 FILLER_21_57
*613 FILLER_21_69
*614 FILLER_21_81
*615 FILLER_21_93
*616 FILLER_22_105
*617 FILLER_22_113
*618 FILLER_22_125
*619 FILLER_22_137
*620 FILLER_22_141
*621 FILLER_22_15
*622 FILLER_22_153
*623 FILLER_22_165
*624 FILLER_22_177
*625 FILLER_22_189
*626 FILLER_22_195
*627 FILLER_22_197
*628 FILLER_22_209
*629 FILLER_22_221
*630 FILLER_22_233
*631 FILLER_22_245
*632 FILLER_22_251
*633 FILLER_22_253
*634 FILLER_22_265
*635 FILLER_22_27
*636 FILLER_22_277
*637 FILLER_22_289
*638 FILLER_22_29
*639 FILLER_22_297
*640 FILLER_22_3
*641 FILLER_22_41
*642 FILLER_22_45
*643 FILLER_22_49
*644 FILLER_22_61
*645 FILLER_22_69
*646 FILLER_22_77
*647 FILLER_22_83
*648 FILLER_22_85
*649 FILLER_22_97
*650 FILLER_23_104
*651 FILLER_23_113
*652 FILLER_23_125
*653 FILLER_23_137
*654 FILLER_23_149
*655 FILLER_23_15
*656 FILLER_23_161
*657 FILLER_23_167
*658 FILLER_23_169
*659 FILLER_23_181
*660 FILLER_23_193
*661 FILLER_23_205
*662 FILLER_23_217
*663 FILLER_23_223
*664 FILLER_23_225
*665 FILLER_23_237
*666 FILLER_23_249
*667 FILLER_23_261
*668 FILLER_23_27
*669 FILLER_23_273
*670 FILLER_23_279
*671 FILLER_23_281
*672 FILLER_23_293
*673 FILLER_23_3
*674 FILLER_23_39
*675 FILLER_23_54
*676 FILLER_23_57
*677 FILLER_23_71
*678 FILLER_23_92
*679 FILLER_24_109
*680 FILLER_24_121
*681 FILLER_24_130
*682 FILLER_24_138
*683 FILLER_24_141
*684 FILLER_24_153
*685 FILLER_24_165
*686 FILLER_24_177
*687 FILLER_24_189
*688 FILLER_24_195
*689 FILLER_24_197
*690 FILLER_24_209
*691 FILLER_24_21
*692 FILLER_24_221
*693 FILLER_24_233
*694 FILLER_24_245
*695 FILLER_24_251
*696 FILLER_24_253
*697 FILLER_24_265
*698 FILLER_24_27
*699 FILLER_24_277
*700 FILLER_24_289
*701 FILLER_24_29
*702 FILLER_24_297
*703 FILLER_24_3
*704 FILLER_24_37
*705 FILLER_24_47
*706 FILLER_24_55
*707 FILLER_24_67
*708 FILLER_24_79
*709 FILLER_24_83
*710 FILLER_24_85
*711 FILLER_24_9
*712 FILLER_24_97
*713 FILLER_25_105
*714 FILLER_25_111
*715 FILLER_25_113
*716 FILLER_25_125
*717 FILLER_25_137
*718 FILLER_25_149
*719 FILLER_25_15
*720 FILLER_25_161
*721 FILLER_25_167
*722 FILLER_25_169
*723 FILLER_25_181
*724 FILLER_25_19
*725 FILLER_25_193
*726 FILLER_25_205
*727 FILLER_25_217
*728 FILLER_25_223
*729 FILLER_25_225
*730 FILLER_25_237
*731 FILLER_25_24
*732 FILLER_25_249
*733 FILLER_25_261
*734 FILLER_25_273
*735 FILLER_25_279
*736 FILLER_25_281
*737 FILLER_25_293
*738 FILLER_25_3
*739 FILLER_25_32
*740 FILLER_25_41
*741 FILLER_25_53
*742 FILLER_25_57
*743 FILLER_25_69
*744 FILLER_25_81
*745 FILLER_25_93
*746 FILLER_26_109
*747 FILLER_26_121
*748 FILLER_26_133
*749 FILLER_26_139
*750 FILLER_26_141
*751 FILLER_26_15
*752 FILLER_26_153
*753 FILLER_26_165
*754 FILLER_26_177
*755 FILLER_26_189
*756 FILLER_26_195
*757 FILLER_26_197
*758 FILLER_26_209
*759 FILLER_26_221
*760 FILLER_26_233
*761 FILLER_26_245
*762 FILLER_26_251
*763 FILLER_26_253
*764 FILLER_26_265
*765 FILLER_26_27
*766 FILLER_26_277
*767 FILLER_26_289
*768 FILLER_26_29
*769 FILLER_26_297
*770 FILLER_26_3
*771 FILLER_26_39
*772 FILLER_26_45
*773 FILLER_26_53
*774 FILLER_26_67
*775 FILLER_26_79
*776 FILLER_26_83
*777 FILLER_26_85
*778 FILLER_26_97
*779 FILLER_27_105
*780 FILLER_27_11
*781 FILLER_27_111
*782 FILLER_27_113
*783 FILLER_27_125
*784 FILLER_27_137
*785 FILLER_27_149
*786 FILLER_27_161
*787 FILLER_27_167
*788 FILLER_27_169
*789 FILLER_27_181
*790 FILLER_27_193
*791 FILLER_27_205
*792 FILLER_27_217
*793 FILLER_27_223
*794 FILLER_27_225
*795 FILLER_27_23
*796 FILLER_27_237
*797 FILLER_27_249
*798 FILLER_27_261
*799 FILLER_27_273
*800 FILLER_27_279
*801 FILLER_27_281
*802 FILLER_27_293
*803 FILLER_27_3
*804 FILLER_27_35
*805 FILLER_27_47
*806 FILLER_27_55
*807 FILLER_27_57
*808 FILLER_27_69
*809 FILLER_27_81
*810 FILLER_27_93
*811 FILLER_28_111
*812 FILLER_28_123
*813 FILLER_28_135
*814 FILLER_28_139
*815 FILLER_28_141
*816 FILLER_28_15
*817 FILLER_28_153
*818 FILLER_28_165
*819 FILLER_28_177
*820 FILLER_28_189
*821 FILLER_28_195
*822 FILLER_28_197
*823 FILLER_28_209
*824 FILLER_28_221
*825 FILLER_28_233
*826 FILLER_28_245
*827 FILLER_28_251
*828 FILLER_28_253
*829 FILLER_28_265
*830 FILLER_28_27
*831 FILLER_28_277
*832 FILLER_28_289
*833 FILLER_28_29
*834 FILLER_28_297
*835 FILLER_28_3
*836 FILLER_28_41
*837 FILLER_28_47
*838 FILLER_28_53
*839 FILLER_28_65
*840 FILLER_28_77
*841 FILLER_28_83
*842 FILLER_28_85
*843 FILLER_28_99
*844 FILLER_29_102
*845 FILLER_29_110
*846 FILLER_29_113
*847 FILLER_29_125
*848 FILLER_29_137
*849 FILLER_29_14
*850 FILLER_29_149
*851 FILLER_29_161
*852 FILLER_29_167
*853 FILLER_29_169
*854 FILLER_29_181
*855 FILLER_29_193
*856 FILLER_29_205
*857 FILLER_29_217
*858 FILLER_29_22
*859 FILLER_29_223
*860 FILLER_29_225
*861 FILLER_29_237
*862 FILLER_29_249
*863 FILLER_29_261
*864 FILLER_29_273
*865 FILLER_29_279
*866 FILLER_29_28
*867 FILLER_29_281
*868 FILLER_29_293
*869 FILLER_29_3
*870 FILLER_29_40
*871 FILLER_29_46
*872 FILLER_29_54
*873 FILLER_29_57
*874 FILLER_29_61
*875 FILLER_29_67
*876 FILLER_29_79
*877 FILLER_29_91
*878 FILLER_2_106
*879 FILLER_2_118
*880 FILLER_2_130
*881 FILLER_2_138
*882 FILLER_2_141
*883 FILLER_2_153
*884 FILLER_2_165
*885 FILLER_2_177
*886 FILLER_2_189
*887 FILLER_2_195
*888 FILLER_2_197
*889 FILLER_2_209
*890 FILLER_2_221
*891 FILLER_2_233
*892 FILLER_2_245
*893 FILLER_2_251
*894 FILLER_2_253
*895 FILLER_2_26
*896 FILLER_2_265
*897 FILLER_2_277
*898 FILLER_2_289
*899 FILLER_2_29
*900 FILLER_2_297
*901 FILLER_2_3
*902 FILLER_2_48
*903 FILLER_2_69
*904 FILLER_2_82
*905 FILLER_2_85
*906 FILLER_2_91
*907 FILLER_2_97
*908 FILLER_30_105
*909 FILLER_30_117
*910 FILLER_30_129
*911 FILLER_30_137
*912 FILLER_30_141
*913 FILLER_30_15
*914 FILLER_30_153
*915 FILLER_30_165
*916 FILLER_30_177
*917 FILLER_30_189
*918 FILLER_30_195
*919 FILLER_30_197
*920 FILLER_30_209
*921 FILLER_30_221
*922 FILLER_30_233
*923 FILLER_30_245
*924 FILLER_30_251
*925 FILLER_30_253
*926 FILLER_30_265
*927 FILLER_30_27
*928 FILLER_30_277
*929 FILLER_30_289
*930 FILLER_30_29
*931 FILLER_30_297
*932 FILLER_30_3
*933 FILLER_30_35
*934 FILLER_30_47
*935 FILLER_30_59
*936 FILLER_30_71
*937 FILLER_30_83
*938 FILLER_30_85
*939 FILLER_30_93
*940 FILLER_31_105
*941 FILLER_31_111
*942 FILLER_31_113
*943 FILLER_31_125
*944 FILLER_31_137
*945 FILLER_31_149
*946 FILLER_31_15
*947 FILLER_31_161
*948 FILLER_31_167
*949 FILLER_31_169
*950 FILLER_31_181
*951 FILLER_31_193
*952 FILLER_31_205
*953 FILLER_31_217
*954 FILLER_31_223
*955 FILLER_31_225
*956 FILLER_31_237
*957 FILLER_31_249
*958 FILLER_31_261
*959 FILLER_31_27
*960 FILLER_31_273
*961 FILLER_31_279
*962 FILLER_31_281
*963 FILLER_31_293
*964 FILLER_31_3
*965 FILLER_31_39
*966 FILLER_31_51
*967 FILLER_31_55
*968 FILLER_31_57
*969 FILLER_31_69
*970 FILLER_31_81
*971 FILLER_31_93
*972 FILLER_32_109
*973 FILLER_32_121
*974 FILLER_32_133
*975 FILLER_32_139
*976 FILLER_32_141
*977 FILLER_32_153
*978 FILLER_32_165
*979 FILLER_32_177
*980 FILLER_32_189
*981 FILLER_32_19
*982 FILLER_32_195
*983 FILLER_32_197
*984 FILLER_32_209
*985 FILLER_32_221
*986 FILLER_32_233
*987 FILLER_32_245
*988 FILLER_32_251
*989 FILLER_32_253
*990 FILLER_32_265
*991 FILLER_32_27
*992 FILLER_32_277
*993 FILLER_32_289
*994 FILLER_32_29
*995 FILLER_32_297
*996 FILLER_32_3
*997 FILLER_32_37
*998 FILLER_32_49
*999 FILLER_32_61
*1000 FILLER_32_68
*1001 FILLER_32_80
*1002 FILLER_32_85
*1003 FILLER_32_97
*1004 FILLER_33_10
*1005 FILLER_33_100
*1006 FILLER_33_105
*1007 FILLER_33_111
*1008 FILLER_33_113
*1009 FILLER_33_125
*1010 FILLER_33_137
*1011 FILLER_33_149
*1012 FILLER_33_161
*1013 FILLER_33_167
*1014 FILLER_33_169
*1015 FILLER_33_181
*1016 FILLER_33_193
*1017 FILLER_33_205
*1018 FILLER_33_217
*1019 FILLER_33_22
*1020 FILLER_33_223
*1021 FILLER_33_225
*1022 FILLER_33_237
*1023 FILLER_33_249
*1024 FILLER_33_261
*1025 FILLER_33_273
*1026 FILLER_33_279
*1027 FILLER_33_28
*1028 FILLER_33_281
*1029 FILLER_33_293
*1030 FILLER_33_3
*1031 FILLER_33_36
*1032 FILLER_33_40
*1033 FILLER_33_50
*1034 FILLER_33_57
*1035 FILLER_33_69
*1036 FILLER_33_81
*1037 FILLER_33_89
*1038 FILLER_33_94
*1039 FILLER_34_109
*1040 FILLER_34_121
*1041 FILLER_34_133
*1042 FILLER_34_139
*1043 FILLER_34_141
*1044 FILLER_34_15
*1045 FILLER_34_153
*1046 FILLER_34_165
*1047 FILLER_34_177
*1048 FILLER_34_189
*1049 FILLER_34_195
*1050 FILLER_34_197
*1051 FILLER_34_209
*1052 FILLER_34_221
*1053 FILLER_34_233
*1054 FILLER_34_245
*1055 FILLER_34_251
*1056 FILLER_34_253
*1057 FILLER_34_265
*1058 FILLER_34_27
*1059 FILLER_34_277
*1060 FILLER_34_289
*1061 FILLER_34_29
*1062 FILLER_34_297
*1063 FILLER_34_3
*1064 FILLER_34_41
*1065 FILLER_34_53
*1066 FILLER_34_65
*1067 FILLER_34_77
*1068 FILLER_34_83
*1069 FILLER_34_85
*1070 FILLER_34_97
*1071 FILLER_35_105
*1072 FILLER_35_111
*1073 FILLER_35_113
*1074 FILLER_35_125
*1075 FILLER_35_137
*1076 FILLER_35_149
*1077 FILLER_35_15
*1078 FILLER_35_161
*1079 FILLER_35_167
*1080 FILLER_35_169
*1081 FILLER_35_181
*1082 FILLER_35_193
*1083 FILLER_35_205
*1084 FILLER_35_217
*1085 FILLER_35_223
*1086 FILLER_35_225
*1087 FILLER_35_237
*1088 FILLER_35_249
*1089 FILLER_35_261
*1090 FILLER_35_27
*1091 FILLER_35_273
*1092 FILLER_35_279
*1093 FILLER_35_281
*1094 FILLER_35_293
*1095 FILLER_35_3
*1096 FILLER_35_39
*1097 FILLER_35_51
*1098 FILLER_35_55
*1099 FILLER_35_57
*1100 FILLER_35_69
*1101 FILLER_35_81
*1102 FILLER_35_93
*1103 FILLER_36_109
*1104 FILLER_36_121
*1105 FILLER_36_133
*1106 FILLER_36_139
*1107 FILLER_36_141
*1108 FILLER_36_15
*1109 FILLER_36_153
*1110 FILLER_36_165
*1111 FILLER_36_177
*1112 FILLER_36_189
*1113 FILLER_36_195
*1114 FILLER_36_197
*1115 FILLER_36_209
*1116 FILLER_36_221
*1117 FILLER_36_23
*1118 FILLER_36_233
*1119 FILLER_36_245
*1120 FILLER_36_251
*1121 FILLER_36_253
*1122 FILLER_36_265
*1123 FILLER_36_27
*1124 FILLER_36_277
*1125 FILLER_36_289
*1126 FILLER_36_29
*1127 FILLER_36_297
*1128 FILLER_36_3
*1129 FILLER_36_36
*1130 FILLER_36_48
*1131 FILLER_36_60
*1132 FILLER_36_72
*1133 FILLER_36_85
*1134 FILLER_36_97
*1135 FILLER_37_105
*1136 FILLER_37_111
*1137 FILLER_37_113
*1138 FILLER_37_125
*1139 FILLER_37_137
*1140 FILLER_37_149
*1141 FILLER_37_161
*1142 FILLER_37_167
*1143 FILLER_37_169
*1144 FILLER_37_181
*1145 FILLER_37_193
*1146 FILLER_37_20
*1147 FILLER_37_205
*1148 FILLER_37_217
*1149 FILLER_37_223
*1150 FILLER_37_225
*1151 FILLER_37_237
*1152 FILLER_37_249
*1153 FILLER_37_261
*1154 FILLER_37_273
*1155 FILLER_37_279
*1156 FILLER_37_281
*1157 FILLER_37_293
*1158 FILLER_37_3
*1159 FILLER_37_32
*1160 FILLER_37_44
*1161 FILLER_37_57
*1162 FILLER_37_69
*1163 FILLER_37_81
*1164 FILLER_37_93
*1165 FILLER_38_109
*1166 FILLER_38_121
*1167 FILLER_38_133
*1168 FILLER_38_139
*1169 FILLER_38_141
*1170 FILLER_38_15
*1171 FILLER_38_153
*1172 FILLER_38_165
*1173 FILLER_38_177
*1174 FILLER_38_189
*1175 FILLER_38_195
*1176 FILLER_38_197
*1177 FILLER_38_209
*1178 FILLER_38_221
*1179 FILLER_38_233
*1180 FILLER_38_245
*1181 FILLER_38_251
*1182 FILLER_38_253
*1183 FILLER_38_265
*1184 FILLER_38_27
*1185 FILLER_38_277
*1186 FILLER_38_289
*1187 FILLER_38_29
*1188 FILLER_38_297
*1189 FILLER_38_3
*1190 FILLER_38_41
*1191 FILLER_38_53
*1192 FILLER_38_65
*1193 FILLER_38_77
*1194 FILLER_38_83
*1195 FILLER_38_85
*1196 FILLER_38_97
*1197 FILLER_39_105
*1198 FILLER_39_111
*1199 FILLER_39_113
*1200 FILLER_39_125
*1201 FILLER_39_137
*1202 FILLER_39_149
*1203 FILLER_39_15
*1204 FILLER_39_161
*1205 FILLER_39_167
*1206 FILLER_39_169
*1207 FILLER_39_181
*1208 FILLER_39_193
*1209 FILLER_39_205
*1210 FILLER_39_217
*1211 FILLER_39_223
*1212 FILLER_39_225
*1213 FILLER_39_237
*1214 FILLER_39_249
*1215 FILLER_39_261
*1216 FILLER_39_27
*1217 FILLER_39_273
*1218 FILLER_39_279
*1219 FILLER_39_281
*1220 FILLER_39_293
*1221 FILLER_39_3
*1222 FILLER_39_39
*1223 FILLER_39_51
*1224 FILLER_39_55
*1225 FILLER_39_57
*1226 FILLER_39_69
*1227 FILLER_39_81
*1228 FILLER_39_93
*1229 FILLER_3_103
*1230 FILLER_3_111
*1231 FILLER_3_113
*1232 FILLER_3_125
*1233 FILLER_3_137
*1234 FILLER_3_149
*1235 FILLER_3_161
*1236 FILLER_3_167
*1237 FILLER_3_169
*1238 FILLER_3_181
*1239 FILLER_3_193
*1240 FILLER_3_205
*1241 FILLER_3_217
*1242 FILLER_3_223
*1243 FILLER_3_225
*1244 FILLER_3_237
*1245 FILLER_3_249
*1246 FILLER_3_25
*1247 FILLER_3_261
*1248 FILLER_3_273
*1249 FILLER_3_279
*1250 FILLER_3_281
*1251 FILLER_3_293
*1252 FILLER_3_3
*1253 FILLER_3_33
*1254 FILLER_3_53
*1255 FILLER_3_57
*1256 FILLER_3_68
*1257 FILLER_3_72
*1258 FILLER_3_82
*1259 FILLER_40_109
*1260 FILLER_40_121
*1261 FILLER_40_133
*1262 FILLER_40_139
*1263 FILLER_40_141
*1264 FILLER_40_15
*1265 FILLER_40_153
*1266 FILLER_40_165
*1267 FILLER_40_177
*1268 FILLER_40_189
*1269 FILLER_40_19
*1270 FILLER_40_195
*1271 FILLER_40_197
*1272 FILLER_40_209
*1273 FILLER_40_221
*1274 FILLER_40_233
*1275 FILLER_40_245
*1276 FILLER_40_251
*1277 FILLER_40_253
*1278 FILLER_40_265
*1279 FILLER_40_27
*1280 FILLER_40_277
*1281 FILLER_40_289
*1282 FILLER_40_29
*1283 FILLER_40_297
*1284 FILLER_40_3
*1285 FILLER_40_41
*1286 FILLER_40_50
*1287 FILLER_40_62
*1288 FILLER_40_74
*1289 FILLER_40_82
*1290 FILLER_40_85
*1291 FILLER_40_97
*1292 FILLER_41_105
*1293 FILLER_41_111
*1294 FILLER_41_113
*1295 FILLER_41_125
*1296 FILLER_41_137
*1297 FILLER_41_149
*1298 FILLER_41_15
*1299 FILLER_41_161
*1300 FILLER_41_167
*1301 FILLER_41_169
*1302 FILLER_41_181
*1303 FILLER_41_193
*1304 FILLER_41_205
*1305 FILLER_41_217
*1306 FILLER_41_223
*1307 FILLER_41_225
*1308 FILLER_41_237
*1309 FILLER_41_249
*1310 FILLER_41_261
*1311 FILLER_41_27
*1312 FILLER_41_273
*1313 FILLER_41_279
*1314 FILLER_41_281
*1315 FILLER_41_293
*1316 FILLER_41_3
*1317 FILLER_41_39
*1318 FILLER_41_51
*1319 FILLER_41_55
*1320 FILLER_41_57
*1321 FILLER_41_69
*1322 FILLER_41_81
*1323 FILLER_41_93
*1324 FILLER_42_109
*1325 FILLER_42_121
*1326 FILLER_42_133
*1327 FILLER_42_139
*1328 FILLER_42_141
*1329 FILLER_42_153
*1330 FILLER_42_165
*1331 FILLER_42_177
*1332 FILLER_42_189
*1333 FILLER_42_195
*1334 FILLER_42_197
*1335 FILLER_42_20
*1336 FILLER_42_209
*1337 FILLER_42_221
*1338 FILLER_42_233
*1339 FILLER_42_245
*1340 FILLER_42_251
*1341 FILLER_42_253
*1342 FILLER_42_265
*1343 FILLER_42_277
*1344 FILLER_42_289
*1345 FILLER_42_29
*1346 FILLER_42_297
*1347 FILLER_42_3
*1348 FILLER_42_41
*1349 FILLER_42_53
*1350 FILLER_42_65
*1351 FILLER_42_77
*1352 FILLER_42_8
*1353 FILLER_42_83
*1354 FILLER_42_85
*1355 FILLER_42_97
*1356 FILLER_43_105
*1357 FILLER_43_111
*1358 FILLER_43_113
*1359 FILLER_43_125
*1360 FILLER_43_137
*1361 FILLER_43_149
*1362 FILLER_43_15
*1363 FILLER_43_161
*1364 FILLER_43_167
*1365 FILLER_43_169
*1366 FILLER_43_181
*1367 FILLER_43_193
*1368 FILLER_43_205
*1369 FILLER_43_217
*1370 FILLER_43_223
*1371 FILLER_43_225
*1372 FILLER_43_237
*1373 FILLER_43_249
*1374 FILLER_43_261
*1375 FILLER_43_27
*1376 FILLER_43_273
*1377 FILLER_43_279
*1378 FILLER_43_281
*1379 FILLER_43_293
*1380 FILLER_43_3
*1381 FILLER_43_39
*1382 FILLER_43_51
*1383 FILLER_43_55
*1384 FILLER_43_57
*1385 FILLER_43_69
*1386 FILLER_43_81
*1387 FILLER_43_93
*1388 FILLER_44_109
*1389 FILLER_44_121
*1390 FILLER_44_133
*1391 FILLER_44_139
*1392 FILLER_44_141
*1393 FILLER_44_15
*1394 FILLER_44_153
*1395 FILLER_44_165
*1396 FILLER_44_177
*1397 FILLER_44_189
*1398 FILLER_44_195
*1399 FILLER_44_197
*1400 FILLER_44_209
*1401 FILLER_44_221
*1402 FILLER_44_233
*1403 FILLER_44_245
*1404 FILLER_44_251
*1405 FILLER_44_253
*1406 FILLER_44_265
*1407 FILLER_44_27
*1408 FILLER_44_277
*1409 FILLER_44_289
*1410 FILLER_44_29
*1411 FILLER_44_297
*1412 FILLER_44_3
*1413 FILLER_44_35
*1414 FILLER_44_47
*1415 FILLER_44_59
*1416 FILLER_44_71
*1417 FILLER_44_83
*1418 FILLER_44_85
*1419 FILLER_44_97
*1420 FILLER_45_105
*1421 FILLER_45_111
*1422 FILLER_45_113
*1423 FILLER_45_125
*1424 FILLER_45_137
*1425 FILLER_45_149
*1426 FILLER_45_15
*1427 FILLER_45_161
*1428 FILLER_45_167
*1429 FILLER_45_169
*1430 FILLER_45_181
*1431 FILLER_45_193
*1432 FILLER_45_205
*1433 FILLER_45_217
*1434 FILLER_45_223
*1435 FILLER_45_225
*1436 FILLER_45_237
*1437 FILLER_45_249
*1438 FILLER_45_261
*1439 FILLER_45_27
*1440 FILLER_45_273
*1441 FILLER_45_279
*1442 FILLER_45_281
*1443 FILLER_45_293
*1444 FILLER_45_3
*1445 FILLER_45_39
*1446 FILLER_45_51
*1447 FILLER_45_55
*1448 FILLER_45_57
*1449 FILLER_45_69
*1450 FILLER_45_81
*1451 FILLER_45_93
*1452 FILLER_46_109
*1453 FILLER_46_121
*1454 FILLER_46_133
*1455 FILLER_46_139
*1456 FILLER_46_141
*1457 FILLER_46_15
*1458 FILLER_46_153
*1459 FILLER_46_165
*1460 FILLER_46_177
*1461 FILLER_46_189
*1462 FILLER_46_195
*1463 FILLER_46_197
*1464 FILLER_46_209
*1465 FILLER_46_221
*1466 FILLER_46_233
*1467 FILLER_46_245
*1468 FILLER_46_251
*1469 FILLER_46_253
*1470 FILLER_46_265
*1471 FILLER_46_27
*1472 FILLER_46_277
*1473 FILLER_46_289
*1474 FILLER_46_29
*1475 FILLER_46_297
*1476 FILLER_46_3
*1477 FILLER_46_41
*1478 FILLER_46_53
*1479 FILLER_46_65
*1480 FILLER_46_77
*1481 FILLER_46_83
*1482 FILLER_46_85
*1483 FILLER_46_97
*1484 FILLER_47_105
*1485 FILLER_47_111
*1486 FILLER_47_113
*1487 FILLER_47_125
*1488 FILLER_47_137
*1489 FILLER_47_149
*1490 FILLER_47_15
*1491 FILLER_47_161
*1492 FILLER_47_167
*1493 FILLER_47_169
*1494 FILLER_47_181
*1495 FILLER_47_193
*1496 FILLER_47_205
*1497 FILLER_47_217
*1498 FILLER_47_223
*1499 FILLER_47_225
*1500 FILLER_47_237
*1501 FILLER_47_249
*1502 FILLER_47_261
*1503 FILLER_47_27
*1504 FILLER_47_273
*1505 FILLER_47_279
*1506 FILLER_47_281
*1507 FILLER_47_293
*1508 FILLER_47_3
*1509 FILLER_47_39
*1510 FILLER_47_51
*1511 FILLER_47_55
*1512 FILLER_47_57
*1513 FILLER_47_69
*1514 FILLER_47_81
*1515 FILLER_47_93
*1516 FILLER_48_109
*1517 FILLER_48_121
*1518 FILLER_48_133
*1519 FILLER_48_139
*1520 FILLER_48_141
*1521 FILLER_48_15
*1522 FILLER_48_153
*1523 FILLER_48_165
*1524 FILLER_48_177
*1525 FILLER_48_189
*1526 FILLER_48_195
*1527 FILLER_48_197
*1528 FILLER_48_209
*1529 FILLER_48_221
*1530 FILLER_48_233
*1531 FILLER_48_245
*1532 FILLER_48_251
*1533 FILLER_48_253
*1534 FILLER_48_265
*1535 FILLER_48_27
*1536 FILLER_48_277
*1537 FILLER_48_289
*1538 FILLER_48_29
*1539 FILLER_48_297
*1540 FILLER_48_3
*1541 FILLER_48_41
*1542 FILLER_48_53
*1543 FILLER_48_65
*1544 FILLER_48_77
*1545 FILLER_48_83
*1546 FILLER_48_85
*1547 FILLER_48_97
*1548 FILLER_49_105
*1549 FILLER_49_111
*1550 FILLER_49_113
*1551 FILLER_49_125
*1552 FILLER_49_137
*1553 FILLER_49_149
*1554 FILLER_49_15
*1555 FILLER_49_161
*1556 FILLER_49_167
*1557 FILLER_49_169
*1558 FILLER_49_181
*1559 FILLER_49_193
*1560 FILLER_49_205
*1561 FILLER_49_217
*1562 FILLER_49_223
*1563 FILLER_49_225
*1564 FILLER_49_237
*1565 FILLER_49_249
*1566 FILLER_49_26
*1567 FILLER_49_261
*1568 FILLER_49_273
*1569 FILLER_49_279
*1570 FILLER_49_281
*1571 FILLER_49_293
*1572 FILLER_49_3
*1573 FILLER_49_38
*1574 FILLER_49_50
*1575 FILLER_49_57
*1576 FILLER_49_69
*1577 FILLER_49_81
*1578 FILLER_49_93
*1579 FILLER_4_109
*1580 FILLER_4_121
*1581 FILLER_4_133
*1582 FILLER_4_139
*1583 FILLER_4_141
*1584 FILLER_4_153
*1585 FILLER_4_165
*1586 FILLER_4_177
*1587 FILLER_4_189
*1588 FILLER_4_195
*1589 FILLER_4_197
*1590 FILLER_4_209
*1591 FILLER_4_221
*1592 FILLER_4_233
*1593 FILLER_4_245
*1594 FILLER_4_251
*1595 FILLER_4_253
*1596 FILLER_4_26
*1597 FILLER_4_265
*1598 FILLER_4_277
*1599 FILLER_4_289
*1600 FILLER_4_29
*1601 FILLER_4_297
*1602 FILLER_4_3
*1603 FILLER_4_51
*1604 FILLER_4_71
*1605 FILLER_4_82
*1606 FILLER_4_85
*1607 FILLER_4_97
*1608 FILLER_50_109
*1609 FILLER_50_121
*1610 FILLER_50_133
*1611 FILLER_50_139
*1612 FILLER_50_141
*1613 FILLER_50_15
*1614 FILLER_50_153
*1615 FILLER_50_165
*1616 FILLER_50_177
*1617 FILLER_50_189
*1618 FILLER_50_195
*1619 FILLER_50_197
*1620 FILLER_50_209
*1621 FILLER_50_221
*1622 FILLER_50_233
*1623 FILLER_50_245
*1624 FILLER_50_251
*1625 FILLER_50_253
*1626 FILLER_50_265