*SPEF "ieee 1481-1999"
*DESIGN "user_module_361728533238569985"
*DATE "11:11:11 Fri 11 11, 1111"
*VENDOR "OpenRCX"
*PROGRAM "Parallel Extraction"
*VERSION "1.0"
*DESIGN_FLOW "NAME_SCOPE LOCAL" "PIN_CAP NONE"
*DIVIDER /
*DELIMITER :
*BUS_DELIMITER []
*T_UNIT 1 NS
*C_UNIT 1 PF
*R_UNIT 1 OHM
*L_UNIT 1 HENRY

*NAME_MAP
*1 io_in[0]
*2 io_in[1]
*3 io_in[2]
*4 io_in[3]
*5 io_in[4]
*6 io_in[5]
*7 io_in[6]
*8 io_in[7]
*9 io_out[0]
*10 io_out[1]
*11 io_out[2]
*12 io_out[3]
*13 io_out[4]
*14 io_out[5]
*15 io_out[6]
*16 io_out[7]
*19 net1
*20 net2
*21 net3
*22 net4
*23 net5
*24 net6
*25 net7
*26 net8
*27 not2\.out
*28 not3\.out
*29 not4\.out
*30 not5\.out
*31 not6\.out
*32 not7\.out
*33 not8\.out
*34 FILLER_0_109
*35 FILLER_0_113
*36 FILLER_0_125
*37 FILLER_0_137
*38 FILLER_0_141
*39 FILLER_0_15
*40 FILLER_0_153
*41 FILLER_0_165
*42 FILLER_0_169
*43 FILLER_0_181
*44 FILLER_0_193
*45 FILLER_0_197
*46 FILLER_0_209
*47 FILLER_0_221
*48 FILLER_0_225
*49 FILLER_0_237
*50 FILLER_0_249
*51 FILLER_0_253
*52 FILLER_0_265
*53 FILLER_0_27
*54 FILLER_0_277
*55 FILLER_0_281
*56 FILLER_0_29
*57 FILLER_0_293
*58 FILLER_0_3
*59 FILLER_0_41
*60 FILLER_0_53
*61 FILLER_0_57
*62 FILLER_0_69
*63 FILLER_0_81
*64 FILLER_0_85
*65 FILLER_0_97
*66 FILLER_10_109
*67 FILLER_10_121
*68 FILLER_10_133
*69 FILLER_10_139
*70 FILLER_10_141
*71 FILLER_10_15
*72 FILLER_10_153
*73 FILLER_10_165
*74 FILLER_10_177
*75 FILLER_10_189
*76 FILLER_10_195
*77 FILLER_10_197
*78 FILLER_10_209
*79 FILLER_10_221
*80 FILLER_10_233
*81 FILLER_10_245
*82 FILLER_10_251
*83 FILLER_10_253
*84 FILLER_10_265
*85 FILLER_10_27
*86 FILLER_10_277
*87 FILLER_10_289
*88 FILLER_10_29
*89 FILLER_10_297
*90 FILLER_10_3
*91 FILLER_10_41
*92 FILLER_10_53
*93 FILLER_10_65
*94 FILLER_10_77
*95 FILLER_10_83
*96 FILLER_10_85
*97 FILLER_10_97
*98 FILLER_11_105
*99 FILLER_11_111
*100 FILLER_11_113
*101 FILLER_11_125
*102 FILLER_11_137
*103 FILLER_11_149
*104 FILLER_11_15
*105 FILLER_11_161
*106 FILLER_11_167
*107 FILLER_11_169
*108 FILLER_11_181
*109 FILLER_11_193
*110 FILLER_11_205
*111 FILLER_11_217
*112 FILLER_11_223
*113 FILLER_11_225
*114 FILLER_11_237
*115 FILLER_11_249
*116 FILLER_11_261
*117 FILLER_11_27
*118 FILLER_11_273
*119 FILLER_11_279
*120 FILLER_11_281
*121 FILLER_11_293
*122 FILLER_11_3
*123 FILLER_11_39
*124 FILLER_11_51
*125 FILLER_11_55
*126 FILLER_11_57
*127 FILLER_11_69
*128 FILLER_11_81
*129 FILLER_11_93
*130 FILLER_12_109
*131 FILLER_12_121
*132 FILLER_12_133
*133 FILLER_12_139
*134 FILLER_12_141
*135 FILLER_12_153
*136 FILLER_12_165
*137 FILLER_12_177
*138 FILLER_12_189
*139 FILLER_12_195
*140 FILLER_12_197
*141 FILLER_12_20
*142 FILLER_12_209
*143 FILLER_12_221
*144 FILLER_12_233
*145 FILLER_12_245
*146 FILLER_12_251
*147 FILLER_12_253
*148 FILLER_12_265
*149 FILLER_12_277
*150 FILLER_12_289
*151 FILLER_12_29
*152 FILLER_12_297
*153 FILLER_12_3
*154 FILLER_12_41
*155 FILLER_12_53
*156 FILLER_12_65
*157 FILLER_12_77
*158 FILLER_12_8
*159 FILLER_12_83
*160 FILLER_12_85
*161 FILLER_12_97
*162 FILLER_13_105
*163 FILLER_13_111
*164 FILLER_13_113
*165 FILLER_13_125
*166 FILLER_13_137
*167 FILLER_13_149
*168 FILLER_13_15
*169 FILLER_13_161
*170 FILLER_13_167
*171 FILLER_13_169
*172 FILLER_13_181
*173 FILLER_13_193
*174 FILLER_13_205
*175 FILLER_13_217
*176 FILLER_13_223
*177 FILLER_13_225
*178 FILLER_13_237
*179 FILLER_13_249
*180 FILLER_13_261
*181 FILLER_13_27
*182 FILLER_13_273
*183 FILLER_13_279
*184 FILLER_13_281
*185 FILLER_13_293
*186 FILLER_13_3
*187 FILLER_13_39
*188 FILLER_13_51
*189 FILLER_13_55
*190 FILLER_13_57
*191 FILLER_13_69
*192 FILLER_13_81
*193 FILLER_13_93
*194 FILLER_14_109
*195 FILLER_14_121
*196 FILLER_14_133
*197 FILLER_14_139
*198 FILLER_14_141
*199 FILLER_14_15
*200 FILLER_14_153
*201 FILLER_14_165
*202 FILLER_14_177
*203 FILLER_14_189
*204 FILLER_14_195
*205 FILLER_14_197
*206 FILLER_14_209
*207 FILLER_14_221
*208 FILLER_14_233
*209 FILLER_14_245
*210 FILLER_14_251
*211 FILLER_14_253
*212 FILLER_14_265
*213 FILLER_14_27
*214 FILLER_14_277
*215 FILLER_14_289
*216 FILLER_14_29
*217 FILLER_14_297
*218 FILLER_14_3
*219 FILLER_14_41
*220 FILLER_14_53
*221 FILLER_14_65
*222 FILLER_14_77
*223 FILLER_14_83
*224 FILLER_14_85
*225 FILLER_14_97
*226 FILLER_15_105
*227 FILLER_15_111
*228 FILLER_15_113
*229 FILLER_15_125
*230 FILLER_15_137
*231 FILLER_15_149
*232 FILLER_15_15
*233 FILLER_15_161
*234 FILLER_15_167
*235 FILLER_15_169
*236 FILLER_15_181
*237 FILLER_15_193
*238 FILLER_15_205
*239 FILLER_15_217
*240 FILLER_15_223
*241 FILLER_15_225
*242 FILLER_15_237
*243 FILLER_15_249
*244 FILLER_15_261
*245 FILLER_15_27
*246 FILLER_15_273
*247 FILLER_15_279
*248 FILLER_15_281
*249 FILLER_15_293
*250 FILLER_15_3
*251 FILLER_15_39
*252 FILLER_15_51
*253 FILLER_15_55
*254 FILLER_15_57
*255 FILLER_15_69
*256 FILLER_15_81
*257 FILLER_15_93
*258 FILLER_16_109
*259 FILLER_16_121
*260 FILLER_16_133
*261 FILLER_16_139
*262 FILLER_16_141
*263 FILLER_16_153
*264 FILLER_16_165
*265 FILLER_16_177
*266 FILLER_16_189
*267 FILLER_16_195
*268 FILLER_16_197
*269 FILLER_16_20
*270 FILLER_16_209
*271 FILLER_16_221
*272 FILLER_16_233
*273 FILLER_16_245
*274 FILLER_16_251
*275 FILLER_16_253
*276 FILLER_16_265
*277 FILLER_16_277
*278 FILLER_16_289
*279 FILLER_16_29
*280 FILLER_16_297
*281 FILLER_16_3
*282 FILLER_16_41
*283 FILLER_16_53
*284 FILLER_16_65
*285 FILLER_16_77
*286 FILLER_16_8
*287 FILLER_16_83
*288 FILLER_16_85
*289 FILLER_16_97
*290 FILLER_17_105
*291 FILLER_17_111
*292 FILLER_17_113
*293 FILLER_17_125
*294 FILLER_17_137
*295 FILLER_17_149
*296 FILLER_17_15
*297 FILLER_17_161
*298 FILLER_17_167
*299 FILLER_17_169
*300 FILLER_17_181
*301 FILLER_17_193
*302 FILLER_17_205
*303 FILLER_17_217
*304 FILLER_17_223
*305 FILLER_17_225
*306 FILLER_17_237
*307 FILLER_17_249
*308 FILLER_17_261
*309 FILLER_17_27
*310 FILLER_17_273
*311 FILLER_17_279
*312 FILLER_17_281
*313 FILLER_17_293
*314 FILLER_17_3
*315 FILLER_17_39
*316 FILLER_17_51
*317 FILLER_17_55
*318 FILLER_17_57
*319 FILLER_17_69
*320 FILLER_17_81
*321 FILLER_17_93
*322 FILLER_18_109
*323 FILLER_18_121
*324 FILLER_18_133
*325 FILLER_18_139
*326 FILLER_18_141
*327 FILLER_18_15
*328 FILLER_18_153
*329 FILLER_18_165
*330 FILLER_18_177
*331 FILLER_18_189
*332 FILLER_18_195
*333 FILLER_18_197
*334 FILLER_18_209
*335 FILLER_18_221
*336 FILLER_18_233
*337 FILLER_18_245
*338 FILLER_18_251
*339 FILLER_18_253
*340 FILLER_18_265
*341 FILLER_18_27
*342 FILLER_18_277
*343 FILLER_18_289
*344 FILLER_18_29
*345 FILLER_18_297
*346 FILLER_18_3
*347 FILLER_18_41
*348 FILLER_18_53
*349 FILLER_18_65
*350 FILLER_18_77
*351 FILLER_18_83
*352 FILLER_18_85
*353 FILLER_18_97
*354 FILLER_19_105
*355 FILLER_19_111
*356 FILLER_19_113
*357 FILLER_19_125
*358 FILLER_19_137
*359 FILLER_19_149
*360 FILLER_19_161
*361 FILLER_19_167
*362 FILLER_19_169
*363 FILLER_19_181
*364 FILLER_19_193
*365 FILLER_19_20
*366 FILLER_19_205
*367 FILLER_19_217
*368 FILLER_19_223
*369 FILLER_19_225
*370 FILLER_19_237
*371 FILLER_19_249
*372 FILLER_19_261
*373 FILLER_19_273
*374 FILLER_19_279
*375 FILLER_19_281
*376 FILLER_19_293
*377 FILLER_19_3
*378 FILLER_19_32
*379 FILLER_19_44
*380 FILLER_19_57
*381 FILLER_19_69
*382 FILLER_19_8
*383 FILLER_19_81
*384 FILLER_19_93
*385 FILLER_1_105
*386 FILLER_1_111
*387 FILLER_1_113
*388 FILLER_1_125
*389 FILLER_1_137
*390 FILLER_1_149
*391 FILLER_1_15
*392 FILLER_1_161
*393 FILLER_1_167
*394 FILLER_1_169
*395 FILLER_1_181
*396 FILLER_1_193
*397 FILLER_1_205
*398 FILLER_1_217
*399 FILLER_1_223
*400 FILLER_1_225
*401 FILLER_1_237
*402 FILLER_1_249
*403 FILLER_1_261
*404 FILLER_1_27
*405 FILLER_1_273
*406 FILLER_1_279
*407 FILLER_1_281
*408 FILLER_1_293
*409 FILLER_1_3
*410 FILLER_1_39
*411 FILLER_1_51
*412 FILLER_1_55
*413 FILLER_1_57
*414 FILLER_1_69
*415 FILLER_1_81
*416 FILLER_1_93
*417 FILLER_20_109
*418 FILLER_20_121
*419 FILLER_20_133
*420 FILLER_20_139
*421 FILLER_20_141
*422 FILLER_20_153
*423 FILLER_20_165
*424 FILLER_20_177
*425 FILLER_20_189
*426 FILLER_20_195
*427 FILLER_20_197
*428 FILLER_20_209
*429 FILLER_20_21
*430 FILLER_20_221
*431 FILLER_20_233
*432 FILLER_20_245
*433 FILLER_20_251
*434 FILLER_20_253
*435 FILLER_20_265
*436 FILLER_20_27
*437 FILLER_20_277
*438 FILLER_20_289
*439 FILLER_20_29
*440 FILLER_20_297
*441 FILLER_20_3
*442 FILLER_20_41
*443 FILLER_20_53
*444 FILLER_20_65
*445 FILLER_20_77
*446 FILLER_20_83
*447 FILLER_20_85
*448 FILLER_20_9
*449 FILLER_20_97
*450 FILLER_21_105
*451 FILLER_21_111
*452 FILLER_21_113
*453 FILLER_21_125
*454 FILLER_21_137
*455 FILLER_21_149
*456 FILLER_21_161
*457 FILLER_21_167
*458 FILLER_21_169
*459 FILLER_21_181
*460 FILLER_21_193
*461 FILLER_21_205
*462 FILLER_21_21
*463 FILLER_21_217
*464 FILLER_21_223
*465 FILLER_21_225
*466 FILLER_21_237
*467 FILLER_21_249
*468 FILLER_21_261
*469 FILLER_21_273
*470 FILLER_21_279
*471 FILLER_21_281
*472 FILLER_21_293
*473 FILLER_21_3
*474 FILLER_21_33
*475 FILLER_21_45
*476 FILLER_21_53
*477 FILLER_21_57
*478 FILLER_21_69
*479 FILLER_21_81
*480 FILLER_21_9
*481 FILLER_21_93
*482 FILLER_22_109
*483 FILLER_22_121
*484 FILLER_22_133
*485 FILLER_22_139
*486 FILLER_22_141
*487 FILLER_22_15
*488 FILLER_22_153
*489 FILLER_22_165
*490 FILLER_22_177
*491 FILLER_22_189
*492 FILLER_22_195
*493 FILLER_22_197
*494 FILLER_22_209
*495 FILLER_22_221
*496 FILLER_22_233
*497 FILLER_22_245
*498 FILLER_22_251
*499 FILLER_22_253
*500 FILLER_22_265
*501 FILLER_22_27
*502 FILLER_22_277
*503 FILLER_22_289
*504 FILLER_22_29
*505 FILLER_22_297
*506 FILLER_22_3
*507 FILLER_22_41
*508 FILLER_22_53
*509 FILLER_22_65
*510 FILLER_22_77
*511 FILLER_22_83
*512 FILLER_22_85
*513 FILLER_22_97
*514 FILLER_23_105
*515 FILLER_23_111
*516 FILLER_23_113
*517 FILLER_23_125
*518 FILLER_23_137
*519 FILLER_23_149
*520 FILLER_23_161
*521 FILLER_23_167
*522 FILLER_23_169
*523 FILLER_23_181
*524 FILLER_23_193
*525 FILLER_23_20
*526 FILLER_23_205
*527 FILLER_23_217
*528 FILLER_23_223
*529 FILLER_23_225
*530 FILLER_23_237
*531 FILLER_23_249
*532 FILLER_23_261
*533 FILLER_23_273
*534 FILLER_23_279
*535 FILLER_23_281
*536 FILLER_23_293
*537 FILLER_23_3
*538 FILLER_23_32
*539 FILLER_23_44
*540 FILLER_23_57
*541 FILLER_23_69
*542 FILLER_23_8
*543 FILLER_23_81
*544 FILLER_23_93
*545 FILLER_24_109
*546 FILLER_24_121
*547 FILLER_24_133
*548 FILLER_24_139
*549 FILLER_24_141
*550 FILLER_24_153
*551 FILLER_24_165
*552 FILLER_24_177
*553 FILLER_24_189
*554 FILLER_24_195
*555 FILLER_24_197
*556 FILLER_24_209
*557 FILLER_24_21
*558 FILLER_24_221
*559 FILLER_24_233
*560 FILLER_24_245
*561 FILLER_24_251
*562 FILLER_24_253
*563 FILLER_24_265
*564 FILLER_24_27
*565 FILLER_24_277
*566 FILLER_24_289
*567 FILLER_24_29
*568 FILLER_24_297
*569 FILLER_24_3
*570 FILLER_24_41
*571 FILLER_24_53
*572 FILLER_24_65
*573 FILLER_24_77
*574 FILLER_24_83
*575 FILLER_24_85
*576 FILLER_24_9
*577 FILLER_24_97
*578 FILLER_25_105
*579 FILLER_25_111
*580 FILLER_25_113
*581 FILLER_25_125
*582 FILLER_25_137
*583 FILLER_25_149
*584 FILLER_25_161
*585 FILLER_25_167
*586 FILLER_25_169
*587 FILLER_25_181
*588 FILLER_25_193
*589 FILLER_25_205
*590 FILLER_25_21
*591 FILLER_25_217
*592 FILLER_25_223
*593 FILLER_25_225
*594 FILLER_25_237
*595 FILLER_25_249
*596 FILLER_25_261
*597 FILLER_25_273
*598 FILLER_25_279
*599 FILLER_25_281
*600 FILLER_25_293
*601 FILLER_25_3
*602 FILLER_25_33
*603 FILLER_25_45
*604 FILLER_25_53
*605 FILLER_25_57
*606 FILLER_25_69
*607 FILLER_25_81
*608 FILLER_25_9
*609 FILLER_25_93
*610 FILLER_26_109
*611 FILLER_26_121
*612 FILLER_26_133
*613 FILLER_26_139
*614 FILLER_26_141
*615 FILLER_26_153
*616 FILLER_26_165
*617 FILLER_26_177
*618 FILLER_26_189
*619 FILLER_26_195
*620 FILLER_26_197
*621 FILLER_26_20
*622 FILLER_26_209
*623 FILLER_26_221
*624 FILLER_26_233
*625 FILLER_26_245
*626 FILLER_26_251
*627 FILLER_26_253
*628 FILLER_26_265
*629 FILLER_26_277
*630 FILLER_26_289
*631 FILLER_26_29
*632 FILLER_26_297
*633 FILLER_26_3
*634 FILLER_26_41
*635 FILLER_26_53
*636 FILLER_26_65
*637 FILLER_26_77
*638 FILLER_26_8
*639 FILLER_26_83
*640 FILLER_26_85
*641 FILLER_26_97
*642 FILLER_27_105
*643 FILLER_27_111
*644 FILLER_27_113
*645 FILLER_27_125
*646 FILLER_27_137
*647 FILLER_27_149
*648 FILLER_27_161
*649 FILLER_27_167
*650 FILLER_27_169
*651 FILLER_27_17
*652 FILLER_27_181
*653 FILLER_27_193
*654 FILLER_27_205
*655 FILLER_27_217
*656 FILLER_27_223
*657 FILLER_27_225
*658 FILLER_27_237
*659 FILLER_27_249
*660 FILLER_27_261
*661 FILLER_27_273
*662 FILLER_27_279
*663 FILLER_27_281
*664 FILLER_27_29
*665 FILLER_27_293
*666 FILLER_27_3
*667 FILLER_27_41
*668 FILLER_27_53
*669 FILLER_27_57
*670 FILLER_27_69
*671 FILLER_27_81
*672 FILLER_27_9
*673 FILLER_27_93
*674 FILLER_28_109
*675 FILLER_28_121
*676 FILLER_28_133
*677 FILLER_28_139
*678 FILLER_28_141
*679 FILLER_28_153
*680 FILLER_28_165
*681 FILLER_28_17
*682 FILLER_28_177
*683 FILLER_28_189
*684 FILLER_28_195
*685 FILLER_28_197
*686 FILLER_28_209
*687 FILLER_28_221
*688 FILLER_28_233
*689 FILLER_28_245
*690 FILLER_28_25
*691 FILLER_28_251
*692 FILLER_28_253
*693 FILLER_28_265
*694 FILLER_28_277
*695 FILLER_28_289
*696 FILLER_28_29
*697 FILLER_28_297
*698 FILLER_28_3
*699 FILLER_28_41
*700 FILLER_28_53
*701 FILLER_28_65
*702 FILLER_28_77
*703 FILLER_28_83
*704 FILLER_28_85
*705 FILLER_28_9
*706 FILLER_28_97
*707 FILLER_29_105
*708 FILLER_29_111
*709 FILLER_29_113
*710 FILLER_29_125
*711 FILLER_29_137
*712 FILLER_29_149
*713 FILLER_29_161
*714 FILLER_29_167
*715 FILLER_29_169
*716 FILLER_29_17
*717 FILLER_29_181
*718 FILLER_29_193
*719 FILLER_29_205
*720 FILLER_29_217
*721 FILLER_29_223
*722 FILLER_29_225
*723 FILLER_29_237
*724 FILLER_29_249
*725 FILLER_29_261
*726 FILLER_29_273
*727 FILLER_29_279
*728 FILLER_29_281
*729 FILLER_29_29
*730 FILLER_29_293
*731 FILLER_29_3
*732 FILLER_29_41
*733 FILLER_29_53
*734 FILLER_29_57
*735 FILLER_29_69
*736 FILLER_29_81
*737 FILLER_29_9
*738 FILLER_29_93
*739 FILLER_2_109
*740 FILLER_2_121
*741 FILLER_2_133
*742 FILLER_2_139
*743 FILLER_2_141
*744 FILLER_2_15
*745 FILLER_2_153
*746 FILLER_2_165
*747 FILLER_2_177
*748 FILLER_2_189
*749 FILLER_2_195
*750 FILLER_2_197
*751 FILLER_2_209
*752 FILLER_2_221
*753 FILLER_2_233
*754 FILLER_2_245
*755 FILLER_2_251
*756 FILLER_2_253
*757 FILLER_2_265
*758 FILLER_2_27
*759 FILLER_2_277
*760 FILLER_2_289
*761 FILLER_2_29
*762 FILLER_2_297
*763 FILLER_2_3
*764 FILLER_2_41
*765 FILLER_2_53
*766 FILLER_2_65
*767 FILLER_2_77
*768 FILLER_2_83
*769 FILLER_2_85
*770 FILLER_2_97
*771 FILLER_30_109
*772 FILLER_30_121
*773 FILLER_30_133
*774 FILLER_30_139
*775 FILLER_30_141
*776 FILLER_30_153
*777 FILLER_30_16
*778 FILLER_30_165
*779 FILLER_30_177
*780 FILLER_30_189
*781 FILLER_30_195
*782 FILLER_30_197
*783 FILLER_30_209
*784 FILLER_30_221
*785 FILLER_30_233
*786 FILLER_30_245
*787 FILLER_30_251
*788 FILLER_30_253
*789 FILLER_30_265
*790 FILLER_30_277
*791 FILLER_30_289
*792 FILLER_30_29
*793 FILLER_30_297
*794 FILLER_30_3
*795 FILLER_30_41
*796 FILLER_30_53
*797 FILLER_30_65
*798 FILLER_30_77
*799 FILLER_30_83
*800 FILLER_30_85
*801 FILLER_30_9
*802 FILLER_30_97
*803 FILLER_31_105
*804 FILLER_31_111
*805 FILLER_31_113
*806 FILLER_31_125
*807 FILLER_31_137
*808 FILLER_31_149
*809 FILLER_31_161
*810 FILLER_31_167
*811 FILLER_31_169
*812 FILLER_31_17
*813 FILLER_31_181
*814 FILLER_31_193
*815 FILLER_31_205
*816 FILLER_31_217
*817 FILLER_31_223
*818 FILLER_31_225
*819 FILLER_31_237
*820 FILLER_31_249
*821 FILLER_31_261
*822 FILLER_31_273
*823 FILLER_31_279
*824 FILLER_31_281
*825 FILLER_31_29
*826 FILLER_31_293
*827 FILLER_31_3
*828 FILLER_31_41
*829 FILLER_31_53
*830 FILLER_31_57
*831 FILLER_31_69
*832 FILLER_31_81
*833 FILLER_31_9
*834 FILLER_31_93
*835 FILLER_32_109
*836 FILLER_32_121
*837 FILLER_32_133
*838 FILLER_32_139
*839 FILLER_32_141
*840 FILLER_32_15
*841 FILLER_32_153
*842 FILLER_32_165
*843 FILLER_32_177
*844 FILLER_32_189
*845 FILLER_32_195
*846 FILLER_32_197
*847 FILLER_32_209
*848 FILLER_32_221
*849 FILLER_32_233
*850 FILLER_32_245
*851 FILLER_32_251
*852 FILLER_32_253
*853 FILLER_32_265
*854 FILLER_32_27
*855 FILLER_32_277
*856 FILLER_32_289
*857 FILLER_32_29
*858 FILLER_32_297
*859 FILLER_32_3
*860 FILLER_32_41
*861 FILLER_32_53
*862 FILLER_32_65
*863 FILLER_32_77
*864 FILLER_32_83
*865 FILLER_32_85
*866 FILLER_32_97
*867 FILLER_33_105
*868 FILLER_33_111
*869 FILLER_33_113
*870 FILLER_33_125
*871 FILLER_33_137
*872 FILLER_33_149
*873 FILLER_33_161
*874 FILLER_33_167
*875 FILLER_33_169
*876 FILLER_33_17
*877 FILLER_33_181
*878 FILLER_33_193
*879 FILLER_33_205
*880 FILLER_33_217
*881 FILLER_33_223
*882 FILLER_33_225
*883 FILLER_33_237
*884 FILLER_33_249
*885 FILLER_33_261
*886 FILLER_33_273
*887 FILLER_33_279
*888 FILLER_33_281
*889 FILLER_33_29
*890 FILLER_33_293
*891 FILLER_33_3
*892 FILLER_33_41
*893 FILLER_33_53
*894 FILLER_33_57
*895 FILLER_33_69
*896 FILLER_33_81
*897 FILLER_33_9
*898 FILLER_33_93
*899 FILLER_34_109
*900 FILLER_34_121
*901 FILLER_34_133
*902 FILLER_34_139
*903 FILLER_34_141
*904 FILLER_34_15
*905 FILLER_34_153
*906 FILLER_34_165
*907 FILLER_34_177
*908 FILLER_34_189
*909 FILLER_34_195
*910 FILLER_34_197
*911 FILLER_34_209
*912 FILLER_34_221
*913 FILLER_34_233
*914 FILLER_34_245
*915 FILLER_34_251
*916 FILLER_34_253
*917 FILLER_34_265
*918 FILLER_34_27
*919 FILLER_34_277
*920 FILLER_34_289
*921 FILLER_34_29
*922 FILLER_34_297
*923 FILLER_34_3
*924 FILLER_34_41
*925 FILLER_34_53
*926 FILLER_34_65
*927 FILLER_34_77
*928 FILLER_34_83
*929 FILLER_34_85
*930 FILLER_34_97
*931 FILLER_35_105
*932 FILLER_35_111
*933 FILLER_35_113
*934 FILLER_35_125
*935 FILLER_35_137
*936 FILLER_35_149
*937 FILLER_35_15
*938 FILLER_35_161
*939 FILLER_35_167
*940 FILLER_35_169
*941 FILLER_35_181
*942 FILLER_35_193
*943 FILLER_35_205
*944 FILLER_35_217
*945 FILLER_35_223
*946 FILLER_35_225
*947 FILLER_35_237
*948 FILLER_35_249
*949 FILLER_35_261
*950 FILLER_35_27
*951 FILLER_35_273
*952 FILLER_35_279
*953 FILLER_35_281
*954 FILLER_35_293
*955 FILLER_35_3
*956 FILLER_35_39
*957 FILLER_35_51
*958 FILLER_35_55
*959 FILLER_35_57
*960 FILLER_35_69
*961 FILLER_35_81
*962 FILLER_35_93
*963 FILLER_36_109
*964 FILLER_36_121
*965 FILLER_36_133
*966 FILLER_36_139
*967 FILLER_36_141
*968 FILLER_36_15
*969 FILLER_36_153
*970 FILLER_36_165
*971 FILLER_36_177
*972 FILLER_36_189
*973 FILLER_36_195
*974 FILLER_36_197
*975 FILLER_36_209
*976 FILLER_36_221
*977 FILLER_36_233
*978 FILLER_36_245
*979 FILLER_36_251
*980 FILLER_36_253
*981 FILLER_36_265
*982 FILLER_36_27
*983 FILLER_36_277
*984 FILLER_36_289
*985 FILLER_36_29
*986 FILLER_36_297
*987 FILLER_36_3
*988 FILLER_36_41
*989 FILLER_36_53
*990 FILLER_36_65
*991 FILLER_36_77
*992 FILLER_36_83
*993 FILLER_36_85
*994 FILLER_36_97
*995 FILLER_37_105
*996 FILLER_37_111
*997 FILLER_37_113
*998 FILLER_37_125
*999 FILLER_37_137
*1000 FILLER_37_149
*1001 FILLER_37_15
*1002 FILLER_37_161
*1003 FILLER_37_167
*1004 FILLER_37_169
*1005 FILLER_37_181
*1006 FILLER_37_193
*1007 FILLER_37_205
*1008 FILLER_37_217
*1009 FILLER_37_223
*1010 FILLER_37_225
*1011 FILLER_37_237
*1012 FILLER_37_249
*1013 FILLER_37_261
*1014 FILLER_37_27
*1015 FILLER_37_273
*1016 FILLER_37_279
*1017 FILLER_37_281
*1018 FILLER_37_293
*1019 FILLER_37_3
*1020 FILLER_37_39
*1021 FILLER_37_51
*1022 FILLER_37_55
*1023 FILLER_37_57
*1024 FILLER_37_69
*1025 FILLER_37_81
*1026 FILLER_37_93
*1027 FILLER_38_109
*1028 FILLER_38_121
*1029 FILLER_38_133
*1030 FILLER_38_139
*1031 FILLER_38_141
*1032 FILLER_38_15
*1033 FILLER_38_153
*1034 FILLER_38_165
*1035 FILLER_38_177
*1036 FILLER_38_189
*1037 FILLER_38_195
*1038 FILLER_38_197
*1039 FILLER_38_209
*1040 FILLER_38_221
*1041 FILLER_38_233
*1042 FILLER_38_245
*1043 FILLER_38_251
*1044 FILLER_38_253
*1045 FILLER_38_265
*1046 FILLER_38_27
*1047 FILLER_38_277
*1048 FILLER_38_289
*1049 FILLER_38_29
*1050 FILLER_38_297
*1051 FILLER_38_3
*1052 FILLER_38_41
*1053 FILLER_38_53
*1054 FILLER_38_65
*1055 FILLER_38_77
*1056 FILLER_38_83
*1057 FILLER_38_85
*1058 FILLER_38_97
*1059 FILLER_39_105
*1060 FILLER_39_111
*1061 FILLER_39_113
*1062 FILLER_39_125
*1063 FILLER_39_137
*1064 FILLER_39_149
*1065 FILLER_39_15
*1066 FILLER_39_161
*1067 FILLER_39_167
*1068 FILLER_39_169
*1069 FILLER_39_181
*1070 FILLER_39_193
*1071 FILLER_39_205
*1072 FILLER_39_217
*1073 FILLER_39_223
*1074 FILLER_39_225
*1075 FILLER_39_237
*1076 FILLER_39_249
*1077 FILLER_39_261
*1078 FILLER_39_27
*1079 FILLER_39_273
*1080 FILLER_39_279
*1081 FILLER_39_281
*1082 FILLER_39_293
*1083 FILLER_39_3
*1084 FILLER_39_39
*1085 FILLER_39_51
*1086 FILLER_39_55
*1087 FILLER_39_57
*1088 FILLER_39_69
*1089 FILLER_39_81
*1090 FILLER_39_93
*1091 FILLER_3_105
*1092 FILLER_3_111
*1093 FILLER_3_113
*1094 FILLER_3_125
*1095 FILLER_3_137
*1096 FILLER_3_149
*1097 FILLER_3_15
*1098 FILLER_3_161
*1099 FILLER_3_167
*1100 FILLER_3_169
*1101 FILLER_3_181
*1102 FILLER_3_193
*1103 FILLER_3_205
*1104 FILLER_3_217
*1105 FILLER_3_223
*1106 FILLER_3_225
*1107 FILLER_3_237
*1108 FILLER_3_249
*1109 FILLER_3_261
*1110 FILLER_3_27
*1111 FILLER_3_273
*1112 FILLER_3_279
*1113 FILLER_3_281
*1114 FILLER_3_293
*1115 FILLER_3_3
*1116 FILLER_3_39
*1117 FILLER_3_51
*1118 FILLER_3_55
*1119 FILLER_3_57
*1120 FILLER_3_69
*1121 FILLER_3_81
*1122 FILLER_3_93
*1123 FILLER_40_109
*1124 FILLER_40_121
*1125 FILLER_40_133
*1126 FILLER_40_139
*1127 FILLER_40_141
*1128 FILLER_40_15
*1129 FILLER_40_153
*1130 FILLER_40_165
*1131 FILLER_40_177
*1132 FILLER_40_189
*1133 FILLER_40_195
*1134 FILLER_40_197
*1135 FILLER_40_209
*1136 FILLER_40_221
*1137 FILLER_40_233
*1138 FILLER_40_245
*1139 FILLER_40_251
*1140 FILLER_40_253
*1141 FILLER_40_265
*1142 FILLER_40_27
*1143 FILLER_40_277
*1144 FILLER_40_289
*1145 FILLER_40_29
*1146 FILLER_40_297
*1147 FILLER_40_3
*1148 FILLER_40_41
*1149 FILLER_40_53
*1150 FILLER_40_65
*1151 FILLER_40_77
*1152 FILLER_40_83
*1153 FILLER_40_85
*1154 FILLER_40_97
*1155 FILLER_41_105
*1156 FILLER_41_111
*1157 FILLER_41_113
*1158 FILLER_41_125
*1159 FILLER_41_137
*1160 FILLER_41_149
*1161 FILLER_41_15
*1162 FILLER_41_161
*1163 FILLER_41_167
*1164 FILLER_41_169
*1165 FILLER_41_181
*1166 FILLER_41_193
*1167 FILLER_41_205
*1168 FILLER_41_217
*1169 FILLER_41_223
*1170 FILLER_41_225
*1171 FILLER_41_237
*1172 FILLER_41_249
*1173 FILLER_41_261
*1174 FILLER_41_27
*1175 FILLER_41_273
*1176 FILLER_41_279
*1177 FILLER_41_281
*1178 FILLER_41_293
*1179 FILLER_41_3
*1180 FILLER_41_39
*1181 FILLER_41_51
*1182 FILLER_41_55
*1183 FILLER_41_57
*1184 FILLER_41_69
*1185 FILLER_41_81
*1186 FILLER_41_93
*1187 FILLER_42_109
*1188 FILLER_42_121
*1189 FILLER_42_133
*1190 FILLER_42_139
*1191 FILLER_42_141
*1192 FILLER_42_15
*1193 FILLER_42_153
*1194 FILLER_42_165
*1195 FILLER_42_177
*1196 FILLER_42_189
*1197 FILLER_42_195
*1198 FILLER_42_197
*1199 FILLER_42_209
*1200 FILLER_42_221
*1201 FILLER_42_233
*1202 FILLER_42_245
*1203 FILLER_42_251
*1204 FILLER_42_253
*1205 FILLER_42_265
*1206 FILLER_42_27
*1207 FILLER_42_277
*1208 FILLER_42_289
*1209 FILLER_42_29
*1210 FILLER_42_297
*1211 FILLER_42_3
*1212 FILLER_42_41
*1213 FILLER_42_53
*1214 FILLER_42_65
*1215 FILLER_42_77
*1216 FILLER_42_83
*1217 FILLER_42_85
*1218 FILLER_42_97
*1219 FILLER_43_105
*1220 FILLER_43_111
*1221 FILLER_43_113
*1222 FILLER_43_125
*1223 FILLER_43_137
*1224 FILLER_43_149
*1225 FILLER_43_15
*1226 FILLER_43_161
*1227 FILLER_43_167
*1228 FILLER_43_169
*1229 FILLER_43_181
*1230 FILLER_43_193
*1231 FILLER_43_205
*1232 FILLER_43_217
*1233 FILLER_43_223
*1234 FILLER_43_225
*1235 FILLER_43_237
*1236 FILLER_43_249
*1237 FILLER_43_261
*1238 FILLER_43_27
*1239 FILLER_43_273
*1240 FILLER_43_279
*1241 FILLER_43_281
*1242 FILLER_43_293
*1243 FILLER_43_3
*1244 FILLER_43_39
*1245 FILLER_43_51
*1246 FILLER_43_55
*1247 FILLER_43_57
*1248 FILLER_43_69
*1249 FILLER_43_81
*1250 FILLER_43_93
*1251 FILLER_44_109
*1252 FILLER_44_121
*1253 FILLER_44_133
*1254 FILLER_44_139
*1255 FILLER_44_141
*1256 FILLER_44_15
*1257 FILLER_44_153
*1258 FILLER_44_165
*1259 FILLER_44_177
*1260 FILLER_44_189
*1261 FILLER_44_195
*1262 FILLER_44_197
*1263 FILLER_44_209
*1264 FILLER_44_221
*1265 FILLER_44_233
*1266 FILLER_44_245
*1267 FILLER_44_251
*1268 FILLER_44_253
*1269 FILLER_44_265
*1270 FILLER_44_27
*1271 FILLER_44_277
*1272 FILLER_44_289
*1273 FILLER_44_29
*1274 FILLER_44_297
*1275 FILLER_44_3
*1276 FILLER_44_41
*1277 FILLER_44_53
*1278 FILLER_44_65
*1279 FILLER_44_77
*1280 FILLER_44_83
*1281 FILLER_44_85
*1282 FILLER_44_97
*1283 FILLER_45_105
*1284 FILLER_45_111
*1285 FILLER_45_113
*1286 FILLER_45_125
*1287 FILLER_45_137
*1288 FILLER_45_149
*1289 FILLER_45_15
*1290 FILLER_45_161
*1291 FILLER_45_167
*1292 FILLER_45_169
*1293 FILLER_45_181
*1294 FILLER_45_193
*1295 FILLER_45_205
*1296 FILLER_45_217
*1297 FILLER_45_223
*1298 FILLER_45_225
*1299 FILLER_45_237
*1300 FILLER_45_249
*1301 FILLER_45_261
*1302 FILLER_45_27
*1303 FILLER_45_273
*1304 FILLER_45_279
*1305 FILLER_45_281
*1306 FILLER_45_293
*1307 FILLER_45_3
*1308 FILLER_45_39
*1309 FILLER_45_51
*1310 FILLER_45_55
*1311 FILLER_45_57
*1312 FILLER_45_69
*1313 FILLER_45_81
*1314 FILLER_45_93
*1315 FILLER_46_109
*1316 FILLER_46_121
*1317 FILLER_46_133
*1318 FILLER_46_139
*1319 FILLER_46_141
*1320 FILLER_46_15
*1321 FILLER_46_153
*1322 FILLER_46_165
*1323 FILLER_46_177
*1324 FILLER_46_189
*1325 FILLER_46_195
*1326 FILLER_46_197
*1327 FILLER_46_209
*1328 FILLER_46_221
*1329 FILLER_46_233
*1330 FILLER_46_245
*1331 FILLER_46_251
*1332 FILLER_46_253
*1333 FILLER_46_265
*1334 FILLER_46_27
*1335 FILLER_46_277
*1336 FILLER_46_289
*1337 FILLER_46_29
*1338 FILLER_46_297
*1339 FILLER_46_3
*1340 FILLER_46_41
*1341 FILLER_46_53
*1342 FILLER_46_65
*1343 FILLER_46_77
*1344 FILLER_46_83
*1345 FILLER_46_85
*1346 FILLER_46_97
*1347 FILLER_47_105
*1348 FILLER_47_111
*1349 FILLER_47_113
*1350 FILLER_47_125
*1351 FILLER_47_137
*1352 FILLER_47_149
*1353 FILLER_47_15
*1354 FILLER_47_161
*1355 FILLER_47_167
*1356 FILLER_47_169
*1357 FILLER_47_181
*1358 FILLER_47_193
*1359 FILLER_47_205
*1360 FILLER_47_217
*1361 FILLER_47_223
*1362 FILLER_47_225
*1363 FILLER_47_237
*1364 FILLER_47_249
*1365 FILLER_47_261
*1366 FILLER_47_27
*1367 FILLER_47_273
*1368 FILLER_47_279
*1369 FILLER_47_281
*1370 FILLER_47_293
*1371 FILLER_47_3
*1372 FILLER_47_39
*1373 FILLER_47_51
*1374 FILLER_47_55
*1375 FILLER_47_57
*1376 FILLER_47_69
*1377 FILLER_47_81
*1378 FILLER_47_93
*1379 FILLER_48_109
*1380 FILLER_48_121
*1381 FILLER_48_133
*1382 FILLER_48_139
*1383 FILLER_48_141
*1384 FILLER_48_15
*1385 FILLER_48_153
*1386 FILLER_48_165
*1387 FILLER_48_177
*1388 FILLER_48_189
*1389 FILLER_48_195
*1390 FILLER_48_197
*1391 FILLER_48_209
*1392 FILLER_48_221
*1393 FILLER_48_233
*1394 FILLER_48_245
*1395 FILLER_48_251
*1396 FILLER_48_253
*1397 FILLER_48_265
*1398 FILLER_48_27
*1399 FILLER_48_277
*1400 FILLER_48_289
*1401 FILLER_48_29
*1402 FILLER_48_297
*1403 FILLER_48_3
*1404 FILLER_48_41
*1405 FILLER_48_53
*1406 FILLER_48_65
*1407 FILLER_48_77
*1408 FILLER_48_83
*1409 FILLER_48_85
*1410 FILLER_48_97
*1411 FILLER_49_105
*1412 FILLER_49_111
*1413 FILLER_49_113
*1414 FILLER_49_125
*1415 FILLER_49_137
*1416 FILLER_49_149
*1417 FILLER_49_15
*1418 FILLER_49_161
*1419 FILLER_49_167
*1420 FILLER_49_169
*1421 FILLER_49_181
*1422 FILLER_49_193
*1423 FILLER_49_205
*1424 FILLER_49_217
*1425 FILLER_49_223
*1426 FILLER_49_225
*1427 FILLER_49_237
*1428 FILLER_49_249
*1429 FILLER_49_261
*1430 FILLER_49_27
*1431 FILLER_49_273
*1432 FILLER_49_279
*1433 FILLER_49_281
*1434 FILLER_49_293
*1435 FILLER_49_3
*1436 FILLER_49_39
*1437 FILLER_49_51
*1438 FILLER_49_55
*1439 FILLER_49_57
*1440 FILLER_49_69
*1441 FILLER_49_81
*1442 FILLER_49_93
*1443 FILLER_4_109
*1444 FILLER_4_121
*1445 FILLER_4_133
*1446 FILLER_4_139
*1447 FILLER_4_141
*1448 FILLER_4_15
*1449 FILLER_4_153
*1450 FILLER_4_165
*1451 FILLER_4_177
*1452 FILLER_4_189
*1453 FILLER_4_195
*1454 FILLER_4_197
*1455 FILLER_4_209
*1456 FILLER_4_221
*1457 FILLER_4_233
*1458 FILLER_4_245
*1459 FILLER_4_251
*1460 FILLER_4_253
*1461 FILLER_4_265
*1462 FILLER_4_27
*1463 FILLER_4_277
*1464 FILLER_4_289
*1465 FILLER_4_29
*1466 FILLER_4_297
*1467 FILLER_4_3
*1468 FILLER_4_41
*1469 FILLER_4_53
*1470 FILLER_4_65
*1471 FILLER_4_77
*1472 FILLER_4_83
*1473 FILLER_4_85
*1474 FILLER_4_97
*1475 FILLER_50_109
*1476 FILLER_50_121
*1477 FILLER_50_133
*1478 FILLER_50_139
*1479 FILLER_50_141
*1480 FILLER_50_15
*1481 FILLER_50_153
*1482 FILLER_50_165
*1483 FILLER_50_177
*1484 FILLER_50_189
*1485 FILLER_50_195
*1486 FILLER_50_197
*1487 FILLER_50_209
*1488 FILLER_50_221
*1489 FILLER_50_233
*1490 FILLER_50_245
*1491 FILLER_50_251
*1492 FILLER_50_253
*1493 FILLER_50_265
*1494 FILLER_50_27
*1495 FILLER_50_277
*1496 FILLER_50_289
*1497 FILLER_50_29
*1498 FILLER_50_297
*1499 FILLER_50_3
*1500 FILLER_50_41
*1501 FILLER_50_53
*1502 FILLER_50_65
*1503 FILLER_50_77
*1504 FILLER_50_83
*1505 FILLER_50_85
*1506 FILLER_50_97
*1507 FILLER_51_105
*1508 FILLER_51_111
*1509 FILLER_51_113
*1510 FILLER_51_125
*1511 FILLER_51_137
*1512 FILLER_51_149
*1513 FILLER_51_15
*1514 FILLER_51_161
*1515 FILLER_51_167
*1516 FILLER_51_169
*1517 FILLER_51_181
*1518 FILLER_51_193
*1519 FILLER_51_205
*1520 FILLER_51_217
*1521 FILLER_51_223
*1522 FILLER_51_225
*1523 FILLER_51_237
*1524 FILLER_51_249
*1525 FILLER_51_261
*1526 FILLER_51_27
*1527 FILLER_51_273
*1528 FILLER_51_279
*1529 FILLER_51_281
*1530 FILLER_51_293
*1531 FILLER_51_3
*1532 FILLER_51_39
*1533 FILLER_51_51
*1534 FILLER_51_55
*1535 FILLER_51_57
*1536 FILLER_51_69
*1537 FILLER_51_81
*1538 FILLER_51_93
*1539 FILLER_52_109
*1540 FILLER_52_121
*1541 FILLER_52_133
*1542 FILLER_52_139
*1543 FILLER_52_141
*1544 FILLER_52_15
*1545 FILLER_52_153
*1546 FILLER_52_165
*1547 FILLER_52_177
*1548 FILLER_52_189
*1549 FILLER_52_195
*1550 FILLER_52_197
*1551 FILLER_52_209
*1552 FILLER_52_221
*1553 FILLER_52_233
*1554 FILLER_52_245
*1555 FILLER_52_251
*1556 FILLER_52_253
*1557 FILLER_52_265
*1558 FILLER_52_27
*1559 FILLER_52_277
*1560 FILLER_52_289
*1561 FILLER_52_29
*1562 FILLER_52_297
*1563 FILLER_52_3
*1564 FILLER_52_41
*1565 FILLER_52_53
*1566 FILLER_52_65
*1567 FILLER_52_77
*1568 FILLER_52_83
*1569 FILLER_52_85
*1570 FILLER_52_97
*1571 FILLER_53_105
*1572 FILLER_53_111
*1573 FILLER_53_113
*1574 FILLER_53_125
*1575 FILLER_53_137
*1576 FILLER_53_149
*1577 FILLER_53_15
*1578 FILLER_53_161
*1579 FILLER_53_167
*1580 FILLER_53_169
*1581 FILLER_53_181
*1582 FILLER_53_193
*1583 FILLER_53_205
*1584 FILLER_53_217
*1585 FILLER_53_223
*1586 FILLER_53_225