*SPEF "ieee 1481-1999"
*DESIGN "user_module_341628725785264722"
*DATE "11:11:11 Fri 11 11, 1111"
*VENDOR "OpenRCX"
*PROGRAM "Parallel Extraction"
*VERSION "1.0"
*DESIGN_FLOW "NAME_SCOPE LOCAL" "PIN_CAP NONE"
*DIVIDER /
*DELIMITER :
*BUS_DELIMITER []
*T_UNIT 1 NS
*C_UNIT 1 PF
*R_UNIT 1 OHM
*L_UNIT 1 HENRY

*NAME_MAP
*1 io_in[0]
*2 io_in[1]
*3 io_in[2]
*4 io_in[3]
*5 io_in[4]
*6 io_in[5]
*7 io_in[6]
*8 io_in[7]
*9 io_out[0]
*10 io_out[1]
*11 io_out[2]
*12 io_out[3]
*13 io_out[4]
*14 io_out[5]
*15 io_out[6]
*16 io_out[7]
*19 _000_
*20 _001_
*21 _002_
*22 _003_
*23 _004_
*24 _005_
*25 _006_
*26 _007_
*27 _008_
*28 _009_
*29 _010_
*30 _011_
*31 _012_
*32 _013_
*33 _014_
*34 _015_
*35 _016_
*36 _017_
*37 _018_
*38 _019_
*39 _020_
*40 _021_
*41 _022_
*42 _023_
*43 _024_
*44 _025_
*45 _026_
*46 _027_
*47 _028_
*48 _029_
*49 _030_
*50 _031_
*51 _032_
*52 _033_
*53 _034_
*54 _035_
*55 _036_
*56 _037_
*57 _038_
*58 _039_
*59 _040_
*60 _041_
*61 _042_
*62 _043_
*63 _044_
*64 _045_
*65 _046_
*66 _047_
*67 _048_
*68 _049_
*69 _050_
*70 _051_
*71 _052_
*72 _053_
*73 _054_
*74 _055_
*75 _056_
*76 _057_
*77 _058_
*78 _059_
*79 _060_
*80 _061_
*81 _062_
*82 _063_
*83 _064_
*84 _065_
*85 _066_
*86 _067_
*87 _068_
*88 _069_
*89 _070_
*90 _071_
*91 _072_
*92 _073_
*93 _074_
*94 _075_
*95 _076_
*96 _077_
*97 _078_
*98 _079_
*99 _080_
*100 _081_
*101 _082_
*102 _083_
*103 _084_
*104 _085_
*105 _086_
*106 _087_
*107 _088_
*108 _089_
*109 _090_
*110 _091_
*111 _092_
*112 _093_
*113 _094_
*114 _095_
*115 _096_
*116 _097_
*117 _098_
*118 _099_
*119 _100_
*120 _101_
*121 _102_
*122 _103_
*123 _104_
*124 _105_
*125 _106_
*126 _107_
*127 _108_
*128 _109_
*129 _110_
*130 _111_
*131 _112_
*132 _113_
*133 _114_
*134 _115_
*135 _116_
*136 _117_
*137 _118_
*138 _119_
*139 _120_
*140 _121_
*141 _122_
*142 _123_
*143 _124_
*144 _125_
*145 _126_
*146 _127_
*147 _128_
*148 _129_
*149 _130_
*150 _131_
*151 _132_
*152 _133_
*153 _134_
*154 _135_
*155 _136_
*156 _137_
*157 _138_
*158 _139_
*159 _140_
*160 _141_
*161 _142_
*162 _143_
*163 _144_
*164 _145_
*165 _146_
*166 _147_
*167 _148_
*168 _149_
*169 _150_
*170 _151_
*171 _152_
*172 _153_
*173 _154_
*174 _155_
*175 _156_
*176 _157_
*177 _158_
*178 _159_
*179 _160_
*180 _161_
*181 _162_
*182 _163_
*183 _164_
*184 _165_
*185 _166_
*186 _167_
*187 _168_
*188 _169_
*189 _170_
*190 _171_
*191 _172_
*192 _173_
*193 _174_
*194 _175_
*195 _176_
*196 _177_
*197 _178_
*198 _179_
*199 _180_
*200 _181_
*201 _182_
*202 _183_
*203 _184_
*204 _185_
*205 _186_
*206 _187_
*207 _188_
*208 _189_
*209 c1_1
*210 c2_1
*211 c4_1
*212 c5_1
*213 c6_1
*214 clknet_0_io_in[0]
*215 clknet_1_0__leaf_io_in[0]
*216 clknet_1_1__leaf_io_in[0]
*217 data\[0\]
*218 data\[10\]
*219 data\[11\]
*220 data\[12\]
*221 data\[13\]
*222 data\[14\]
*223 data\[15\]
*224 data\[16\]
*225 data\[17\]
*226 data\[18\]
*227 data\[19\]
*228 data\[1\]
*229 data\[20\]
*230 data\[21\]
*231 data\[22\]
*232 data\[23\]
*233 data\[24\]
*234 data\[25\]
*235 data\[26\]
*236 data\[27\]
*237 data\[2\]
*238 data\[3\]
*239 data\[4\]
*240 data\[5\]
*241 data\[6\]
*242 data\[7\]
*243 data\[8\]
*244 data\[9\]
*245 net1
*246 net10
*247 net11
*248 net2
*249 net3
*250 net4
*251 net5
*252 net6
*253 net7
*254 net8
*255 net9
*256 random_out
*257 selected_clock
*258 shifter\[0\]
*259 shifter\[10\]
*260 shifter\[11\]
*261 shifter\[1\]
*262 shifter\[2\]
*263 shifter\[3\]
*264 shifter\[4\]
*265 shifter\[5\]
*266 shifter\[6\]
*267 shifter\[7\]
*268 shifter\[8\]
*269 shifter\[9\]
*270 tmp0\.data\[0\]
*271 tmp0\.data\[1\]
*272 tmp1\.data\[0\]
*273 tmp1\.data\[1\]
*274 tmp2\.data\[0\]
*275 tmp2\.data\[1\]
*276 tmp3\.clk
*277 tmp3\.data\[0\]
*278 tmp3\.data\[1\]
*279 tmp4\.data\[0\]
*280 tmp4\.data\[1\]
*281 tmp5\.data\[0\]
*282 tmp5\.data\[1\]
*283 tmp6\.data\[0\]
*284 tmp6\.data\[1\]
*285 tmp7\.clk
*286 tmp7\.data\[0\]
*287 tmp7\.data\[1\]
*288 FILLER_0_109
*289 FILLER_0_113
*290 FILLER_0_125
*291 FILLER_0_137
*292 FILLER_0_141
*293 FILLER_0_153
*294 FILLER_0_165
*295 FILLER_0_169
*296 FILLER_0_181
*297 FILLER_0_193
*298 FILLER_0_197
*299 FILLER_0_209
*300 FILLER_0_221
*301 FILLER_0_225
*302 FILLER_0_237
*303 FILLER_0_249
*304 FILLER_0_25
*305 FILLER_0_253
*306 FILLER_0_265
*307 FILLER_0_277
*308 FILLER_0_281
*309 FILLER_0_29
*310 FILLER_0_293
*311 FILLER_0_3
*312 FILLER_0_47
*313 FILLER_0_55
*314 FILLER_0_57
*315 FILLER_0_69
*316 FILLER_0_81
*317 FILLER_0_85
*318 FILLER_0_97
*319 FILLER_10_107
*320 FILLER_10_119
*321 FILLER_10_131
*322 FILLER_10_139
*323 FILLER_10_141
*324 FILLER_10_153
*325 FILLER_10_165
*326 FILLER_10_177
*327 FILLER_10_189
*328 FILLER_10_195
*329 FILLER_10_197
*330 FILLER_10_20
*331 FILLER_10_209
*332 FILLER_10_221
*333 FILLER_10_233
*334 FILLER_10_245
*335 FILLER_10_251
*336 FILLER_10_253
*337 FILLER_10_265
*338 FILLER_10_277
*339 FILLER_10_289
*340 FILLER_10_29
*341 FILLER_10_297
*342 FILLER_10_3
*343 FILLER_10_38
*344 FILLER_10_46
*345 FILLER_10_65
*346 FILLER_10_73
*347 FILLER_10_8
*348 FILLER_10_82
*349 FILLER_10_85
*350 FILLER_10_95
*351 FILLER_11_100
*352 FILLER_11_107
*353 FILLER_11_111
*354 FILLER_11_113
*355 FILLER_11_12
*356 FILLER_11_125
*357 FILLER_11_137
*358 FILLER_11_149
*359 FILLER_11_161
*360 FILLER_11_167
*361 FILLER_11_169
*362 FILLER_11_181
*363 FILLER_11_193
*364 FILLER_11_205
*365 FILLER_11_217
*366 FILLER_11_223
*367 FILLER_11_225
*368 FILLER_11_23
*369 FILLER_11_237
*370 FILLER_11_249
*371 FILLER_11_261
*372 FILLER_11_273
*373 FILLER_11_279
*374 FILLER_11_281
*375 FILLER_11_293
*376 FILLER_11_3
*377 FILLER_11_38
*378 FILLER_11_47
*379 FILLER_11_55
*380 FILLER_11_57
*381 FILLER_11_66
*382 FILLER_11_80
*383 FILLER_12_108
*384 FILLER_12_120
*385 FILLER_12_132
*386 FILLER_12_141
*387 FILLER_12_153
*388 FILLER_12_165
*389 FILLER_12_177
*390 FILLER_12_18
*391 FILLER_12_189
*392 FILLER_12_195
*393 FILLER_12_197
*394 FILLER_12_209
*395 FILLER_12_221
*396 FILLER_12_233
*397 FILLER_12_245
*398 FILLER_12_251
*399 FILLER_12_253
*400 FILLER_12_26
*401 FILLER_12_265
*402 FILLER_12_277
*403 FILLER_12_289
*404 FILLER_12_29
*405 FILLER_12_297
*406 FILLER_12_3
*407 FILLER_12_39
*408 FILLER_12_50
*409 FILLER_12_58
*410 FILLER_12_70
*411 FILLER_12_81
*412 FILLER_12_85
*413 FILLER_12_89
*414 FILLER_12_9
*415 FILLER_12_96
*416 FILLER_13_107
*417 FILLER_13_111
*418 FILLER_13_113
*419 FILLER_13_125
*420 FILLER_13_137
*421 FILLER_13_14
*422 FILLER_13_149
*423 FILLER_13_161
*424 FILLER_13_167
*425 FILLER_13_169
*426 FILLER_13_181
*427 FILLER_13_193
*428 FILLER_13_205
*429 FILLER_13_217
*430 FILLER_13_22
*431 FILLER_13_223
*432 FILLER_13_225
*433 FILLER_13_237
*434 FILLER_13_249
*435 FILLER_13_261
*436 FILLER_13_273
*437 FILLER_13_279
*438 FILLER_13_281
*439 FILLER_13_293
*440 FILLER_13_3
*441 FILLER_13_30
*442 FILLER_13_40
*443 FILLER_13_44
*444 FILLER_13_52
*445 FILLER_13_57
*446 FILLER_13_64
*447 FILLER_13_7
*448 FILLER_13_76
*449 FILLER_13_88
*450 FILLER_13_95
*451 FILLER_14_105
*452 FILLER_14_117
*453 FILLER_14_129
*454 FILLER_14_137
*455 FILLER_14_141
*456 FILLER_14_153
*457 FILLER_14_16
*458 FILLER_14_165
*459 FILLER_14_177
*460 FILLER_14_189
*461 FILLER_14_195
*462 FILLER_14_197
*463 FILLER_14_209
*464 FILLER_14_221
*465 FILLER_14_233
*466 FILLER_14_245
*467 FILLER_14_251
*468 FILLER_14_253
*469 FILLER_14_26
*470 FILLER_14_265
*471 FILLER_14_277
*472 FILLER_14_289
*473 FILLER_14_29
*474 FILLER_14_297
*475 FILLER_14_3
*476 FILLER_14_33
*477 FILLER_14_41
*478 FILLER_14_48
*479 FILLER_14_59
*480 FILLER_14_80
*481 FILLER_14_85
*482 FILLER_14_93
*483 FILLER_15_105
*484 FILLER_15_111
*485 FILLER_15_113
*486 FILLER_15_125
*487 FILLER_15_137
*488 FILLER_15_149
*489 FILLER_15_161
*490 FILLER_15_167
*491 FILLER_15_169
*492 FILLER_15_181
*493 FILLER_15_193
*494 FILLER_15_205
*495 FILLER_15_21
*496 FILLER_15_217
*497 FILLER_15_223
*498 FILLER_15_225
*499 FILLER_15_237
*500 FILLER_15_249
*501 FILLER_15_261
*502 FILLER_15_273
*503 FILLER_15_279
*504 FILLER_15_281
*505 FILLER_15_29
*506 FILLER_15_293
*507 FILLER_15_3
*508 FILLER_15_35
*509 FILLER_15_48
*510 FILLER_15_57
*511 FILLER_15_66
*512 FILLER_15_78
*513 FILLER_15_9
*514 FILLER_15_93
*515 FILLER_16_103
*516 FILLER_16_115
*517 FILLER_16_126
*518 FILLER_16_138
*519 FILLER_16_141
*520 FILLER_16_153
*521 FILLER_16_165
*522 FILLER_16_177
*523 FILLER_16_189
*524 FILLER_16_195
*525 FILLER_16_197
*526 FILLER_16_209
*527 FILLER_16_221
*528 FILLER_16_233
*529 FILLER_16_24
*530 FILLER_16_245
*531 FILLER_16_251
*532 FILLER_16_253
*533 FILLER_16_265
*534 FILLER_16_277
*535 FILLER_16_289
*536 FILLER_16_29
*537 FILLER_16_297
*538 FILLER_16_3
*539 FILLER_16_34
*540 FILLER_16_38
*541 FILLER_16_44
*542 FILLER_16_56
*543 FILLER_16_64
*544 FILLER_16_82
*545 FILLER_16_85
*546 FILLER_16_9
*547 FILLER_17_110
*548 FILLER_17_113
*549 FILLER_17_125
*550 FILLER_17_143
*551 FILLER_17_155
*552 FILLER_17_167
*553 FILLER_17_169
*554 FILLER_17_181
*555 FILLER_17_193
*556 FILLER_17_205
*557 FILLER_17_21
*558 FILLER_17_217
*559 FILLER_17_223
*560 FILLER_17_225
*561 FILLER_17_237
*562 FILLER_17_249
*563 FILLER_17_261
*564 FILLER_17_273
*565 FILLER_17_279
*566 FILLER_17_281
*567 FILLER_17_293
*568 FILLER_17_3
*569 FILLER_17_31
*570 FILLER_17_43
*571 FILLER_17_55
*572 FILLER_17_57
*573 FILLER_17_69
*574 FILLER_17_78
*575 FILLER_17_90
*576 FILLER_17_99
*577 FILLER_18_116
*578 FILLER_18_128
*579 FILLER_18_141
*580 FILLER_18_153
*581 FILLER_18_165
*582 FILLER_18_177
*583 FILLER_18_189
*584 FILLER_18_195
*585 FILLER_18_197
*586 FILLER_18_209
*587 FILLER_18_221
*588 FILLER_18_233
*589 FILLER_18_245
*590 FILLER_18_251
*591 FILLER_18_253
*592 FILLER_18_26
*593 FILLER_18_265
*594 FILLER_18_277
*595 FILLER_18_289
*596 FILLER_18_29
*597 FILLER_18_297
*598 FILLER_18_3
*599 FILLER_18_34
*600 FILLER_18_40
*601 FILLER_18_47
*602 FILLER_18_59
*603 FILLER_18_71
*604 FILLER_18_83
*605 FILLER_18_85
*606 FILLER_18_9
*607 FILLER_18_96
*608 FILLER_19_105
*609 FILLER_19_111
*610 FILLER_19_113
*611 FILLER_19_125
*612 FILLER_19_137
*613 FILLER_19_149
*614 FILLER_19_161
*615 FILLER_19_167
*616 FILLER_19_169
*617 FILLER_19_17
*618 FILLER_19_181
*619 FILLER_19_193
*620 FILLER_19_205
*621 FILLER_19_217
*622 FILLER_19_223
*623 FILLER_19_225
*624 FILLER_19_237
*625 FILLER_19_249
*626 FILLER_19_261
*627 FILLER_19_273
*628 FILLER_19_279
*629 FILLER_19_281
*630 FILLER_19_293
*631 FILLER_19_3
*632 FILLER_19_34
*633 FILLER_19_54
*634 FILLER_19_57
*635 FILLER_19_69
*636 FILLER_19_81
*637 FILLER_19_9
*638 FILLER_19_93
*639 FILLER_1_105
*640 FILLER_1_111
*641 FILLER_1_113
*642 FILLER_1_119
*643 FILLER_1_131
*644 FILLER_1_148
*645 FILLER_1_160
*646 FILLER_1_169
*647 FILLER_1_181
*648 FILLER_1_193
*649 FILLER_1_205
*650 FILLER_1_217
*651 FILLER_1_223
*652 FILLER_1_225
*653 FILLER_1_237
*654 FILLER_1_249
*655 FILLER_1_26
*656 FILLER_1_261
*657 FILLER_1_273
*658 FILLER_1_279
*659 FILLER_1_281
*660 FILLER_1_293
*661 FILLER_1_3
*662 FILLER_1_46
*663 FILLER_1_54
*664 FILLER_1_57
*665 FILLER_1_69
*666 FILLER_1_81
*667 FILLER_1_93
*668 FILLER_20_106
*669 FILLER_20_118
*670 FILLER_20_130
*671 FILLER_20_138
*672 FILLER_20_141
*673 FILLER_20_153
*674 FILLER_20_165
*675 FILLER_20_177
*676 FILLER_20_189
*677 FILLER_20_195
*678 FILLER_20_197
*679 FILLER_20_209
*680 FILLER_20_21
*681 FILLER_20_221
*682 FILLER_20_233
*683 FILLER_20_245
*684 FILLER_20_251
*685 FILLER_20_253
*686 FILLER_20_265
*687 FILLER_20_27
*688 FILLER_20_277
*689 FILLER_20_289
*690 FILLER_20_29
*691 FILLER_20_297
*692 FILLER_20_3
*693 FILLER_20_37
*694 FILLER_20_43
*695 FILLER_20_55
*696 FILLER_20_67
*697 FILLER_20_79
*698 FILLER_20_83
*699 FILLER_20_85
*700 FILLER_20_9
*701 FILLER_20_94
*702 FILLER_21_105
*703 FILLER_21_111
*704 FILLER_21_113
*705 FILLER_21_125
*706 FILLER_21_137
*707 FILLER_21_149
*708 FILLER_21_161
*709 FILLER_21_167
*710 FILLER_21_169
*711 FILLER_21_181
*712 FILLER_21_193
*713 FILLER_21_205
*714 FILLER_21_217
*715 FILLER_21_223
*716 FILLER_21_225
*717 FILLER_21_237
*718 FILLER_21_249
*719 FILLER_21_25
*720 FILLER_21_261
*721 FILLER_21_273
*722 FILLER_21_279
*723 FILLER_21_281
*724 FILLER_21_293
*725 FILLER_21_3
*726 FILLER_21_36
*727 FILLER_21_48
*728 FILLER_21_57
*729 FILLER_21_61
*730 FILLER_21_69
*731 FILLER_21_73
*732 FILLER_21_81
*733 FILLER_21_93
*734 FILLER_22_109
*735 FILLER_22_121
*736 FILLER_22_133
*737 FILLER_22_139
*738 FILLER_22_141
*739 FILLER_22_153
*740 FILLER_22_165
*741 FILLER_22_177
*742 FILLER_22_189
*743 FILLER_22_195
*744 FILLER_22_197
*745 FILLER_22_209
*746 FILLER_22_21
*747 FILLER_22_221
*748 FILLER_22_233
*749 FILLER_22_245
*750 FILLER_22_251
*751 FILLER_22_253
*752 FILLER_22_265
*753 FILLER_22_27
*754 FILLER_22_277
*755 FILLER_22_289
*756 FILLER_22_29
*757 FILLER_22_297
*758 FILLER_22_3
*759 FILLER_22_38
*760 FILLER_22_50
*761 FILLER_22_59
*762 FILLER_22_71
*763 FILLER_22_83
*764 FILLER_22_85
*765 FILLER_22_97
*766 FILLER_23_105
*767 FILLER_23_111
*768 FILLER_23_113
*769 FILLER_23_125
*770 FILLER_23_137
*771 FILLER_23_149
*772 FILLER_23_161
*773 FILLER_23_167
*774 FILLER_23_169
*775 FILLER_23_181
*776 FILLER_23_193
*777 FILLER_23_205
*778 FILLER_23_217
*779 FILLER_23_223
*780 FILLER_23_225
*781 FILLER_23_237
*782 FILLER_23_249
*783 FILLER_23_261
*784 FILLER_23_273
*785 FILLER_23_279
*786 FILLER_23_281
*787 FILLER_23_293
*788 FILLER_23_3
*789 FILLER_23_37
*790 FILLER_23_50
*791 FILLER_23_57
*792 FILLER_23_69
*793 FILLER_23_81
*794 FILLER_23_9
*795 FILLER_23_93
*796 FILLER_24_103
*797 FILLER_24_107
*798 FILLER_24_119
*799 FILLER_24_131
*800 FILLER_24_139
*801 FILLER_24_141
*802 FILLER_24_153
*803 FILLER_24_165
*804 FILLER_24_177
*805 FILLER_24_189
*806 FILLER_24_195
*807 FILLER_24_197
*808 FILLER_24_209
*809 FILLER_24_21
*810 FILLER_24_221
*811 FILLER_24_233
*812 FILLER_24_245
*813 FILLER_24_251
*814 FILLER_24_253
*815 FILLER_24_265
*816 FILLER_24_27
*817 FILLER_24_277
*818 FILLER_24_289
*819 FILLER_24_29
*820 FILLER_24_297
*821 FILLER_24_3
*822 FILLER_24_41
*823 FILLER_24_50
*824 FILLER_24_82
*825 FILLER_24_85
*826 FILLER_24_97
*827 FILLER_25_110
*828 FILLER_25_113
*829 FILLER_25_125
*830 FILLER_25_13
*831 FILLER_25_137
*832 FILLER_25_149
*833 FILLER_25_161
*834 FILLER_25_167
*835 FILLER_25_169
*836 FILLER_25_181
*837 FILLER_25_193
*838 FILLER_25_205
*839 FILLER_25_217
*840 FILLER_25_223
*841 FILLER_25_225
*842 FILLER_25_237
*843 FILLER_25_249
*844 FILLER_25_261
*845 FILLER_25_273
*846 FILLER_25_279
*847 FILLER_25_281
*848 FILLER_25_293
*849 FILLER_25_3
*850 FILLER_25_30
*851 FILLER_25_50
*852 FILLER_25_57
*853 FILLER_25_66
*854 FILLER_25_70
*855 FILLER_25_78
*856 FILLER_25_85
*857 FILLER_25_89
*858 FILLER_25_9
*859 FILLER_26_102
*860 FILLER_26_109
*861 FILLER_26_11
*862 FILLER_26_121
*863 FILLER_26_133
*864 FILLER_26_139
*865 FILLER_26_141
*866 FILLER_26_153
*867 FILLER_26_16
*868 FILLER_26_165
*869 FILLER_26_177
*870 FILLER_26_189
*871 FILLER_26_195
*872 FILLER_26_197
*873 FILLER_26_209
*874 FILLER_26_221
*875 FILLER_26_233
*876 FILLER_26_245
*877 FILLER_26_251
*878 FILLER_26_253
*879 FILLER_26_26
*880 FILLER_26_265
*881 FILLER_26_277
*882 FILLER_26_289
*883 FILLER_26_29
*884 FILLER_26_297
*885 FILLER_26_3
*886 FILLER_26_37
*887 FILLER_26_61
*888 FILLER_26_68
*889 FILLER_26_75
*890 FILLER_26_83
*891 FILLER_26_85
*892 FILLER_26_91
*893 FILLER_27_104
*894 FILLER_27_113
*895 FILLER_27_118
*896 FILLER_27_126
*897 FILLER_27_130
*898 FILLER_27_142
*899 FILLER_27_154
*900 FILLER_27_166
*901 FILLER_27_169
*902 FILLER_27_181
*903 FILLER_27_193
*904 FILLER_27_205
*905 FILLER_27_217
*906 FILLER_27_223
*907 FILLER_27_225
*908 FILLER_27_237
*909 FILLER_27_249
*910 FILLER_27_261
*911 FILLER_27_273
*912 FILLER_27_279
*913 FILLER_27_281
*914 FILLER_27_293
*915 FILLER_27_3
*916 FILLER_27_30
*917 FILLER_27_41
*918 FILLER_27_49
*919 FILLER_27_53
*920 FILLER_27_57
*921 FILLER_27_67
*922 FILLER_27_77
*923 FILLER_27_85
*924 FILLER_27_9
*925 FILLER_27_97
*926 FILLER_28_111
*927 FILLER_28_12
*928 FILLER_28_135
*929 FILLER_28_139
*930 FILLER_28_141
*931 FILLER_28_153
*932 FILLER_28_165
*933 FILLER_28_177
*934 FILLER_28_189
*935 FILLER_28_195
*936 FILLER_28_197
*937 FILLER_28_209
*938 FILLER_28_22
*939 FILLER_28_221
*940 FILLER_28_233
*941 FILLER_28_245
*942 FILLER_28_251
*943 FILLER_28_253
*944 FILLER_28_265
*945 FILLER_28_277
*946 FILLER_28_289
*947 FILLER_28_29
*948 FILLER_28_297
*949 FILLER_28_3
*950 FILLER_28_55
*951 FILLER_28_7
*952 FILLER_28_79
*953 FILLER_28_83
*954 FILLER_28_85
*955 FILLER_29_101
*956 FILLER_29_109
*957 FILLER_29_113
*958 FILLER_29_120
*959 FILLER_29_127
*960 FILLER_29_141
*961 FILLER_29_153
*962 FILLER_29_165
*963 FILLER_29_169
*964 FILLER_29_17
*965 FILLER_29_181
*966 FILLER_29_193
*967 FILLER_29_205
*968 FILLER_29_217
*969 FILLER_29_223
*970 FILLER_29_225
*971 FILLER_29_23
*972 FILLER_29_237
*973 FILLER_29_249
*974 FILLER_29_261
*975 FILLER_29_273
*976 FILLER_29_279
*977 FILLER_29_281
*978 FILLER_29_293
*979 FILLER_29_3
*980 FILLER_29_31
*981 FILLER_29_40
*982 FILLER_29_52
*983 FILLER_29_57
*984 FILLER_29_72
*985 FILLER_29_83
*986 FILLER_29_9
*987 FILLER_29_91
*988 FILLER_2_109
*989 FILLER_2_126
*990 FILLER_2_138
*991 FILLER_2_141
*992 FILLER_2_149
*993 FILLER_2_161
*994 FILLER_2_173
*995 FILLER_2_185
*996 FILLER_2_193
*997 FILLER_2_197
*998 FILLER_2_209
*999 FILLER_2_21
*1000 FILLER_2_221
*1001 FILLER_2_233
*1002 FILLER_2_245
*1003 FILLER_2_251
*1004 FILLER_2_253
*1005 FILLER_2_265
*1006 FILLER_2_27
*1007 FILLER_2_277
*1008 FILLER_2_289
*1009 FILLER_2_29
*1010 FILLER_2_297
*1011 FILLER_2_3
*1012 FILLER_2_34
*1013 FILLER_2_46
*1014 FILLER_2_58
*1015 FILLER_2_70
*1016 FILLER_2_82
*1017 FILLER_2_85
*1018 FILLER_2_97
*1019 FILLER_30_10
*1020 FILLER_30_104
*1021 FILLER_30_116
*1022 FILLER_30_128
*1023 FILLER_30_136
*1024 FILLER_30_141
*1025 FILLER_30_148
*1026 FILLER_30_160
*1027 FILLER_30_17
*1028 FILLER_30_172
*1029 FILLER_30_184
*1030 FILLER_30_197
*1031 FILLER_30_209
*1032 FILLER_30_221
*1033 FILLER_30_233
*1034 FILLER_30_245
*1035 FILLER_30_251
*1036 FILLER_30_253
*1037 FILLER_30_26
*1038 FILLER_30_265
*1039 FILLER_30_277
*1040 FILLER_30_289
*1041 FILLER_30_29
*1042 FILLER_30_297
*1043 FILLER_30_3
*1044 FILLER_30_33
*1045 FILLER_30_39
*1046 FILLER_30_51
*1047 FILLER_30_59
*1048 FILLER_30_82
*1049 FILLER_30_85
*1050 FILLER_30_92
*1051 FILLER_31_100
*1052 FILLER_31_113
*1053 FILLER_31_119
*1054 FILLER_31_127
*1055 FILLER_31_133
*1056 FILLER_31_157
*1057 FILLER_31_165
*1058 FILLER_31_169
*1059 FILLER_31_181
*1060 FILLER_31_193
*1061 FILLER_31_205
*1062 FILLER_31_217
*1063 FILLER_31_223
*1064 FILLER_31_225
*1065 FILLER_31_237
*1066 FILLER_31_249
*1067 FILLER_31_25
*1068 FILLER_31_261
*1069 FILLER_31_273
*1070 FILLER_31_279
*1071 FILLER_31_281
*1072 FILLER_31_293
*1073 FILLER_31_3
*1074 FILLER_31_32
*1075 FILLER_31_44
*1076 FILLER_31_57
*1077 FILLER_31_69
*1078 FILLER_31_76
*1079 FILLER_32_103
*1080 FILLER_32_12
*1081 FILLER_32_124
*1082 FILLER_32_131
*1083 FILLER_32_138
*1084 FILLER_32_141
*1085 FILLER_32_152
*1086 FILLER_32_164
*1087 FILLER_32_176
*1088 FILLER_32_188
*1089 FILLER_32_197
*1090 FILLER_32_209
*1091 FILLER_32_21
*1092 FILLER_32_221
*1093 FILLER_32_233
*1094 FILLER_32_245
*1095 FILLER_32_251
*1096 FILLER_32_253
*1097 FILLER_32_265
*1098 FILLER_32_27
*1099 FILLER_32_277
*1100 FILLER_32_289
*1101 FILLER_32_29
*1102 FILLER_32_297
*1103 FILLER_32_3
*1104 FILLER_32_40
*1105 FILLER_32_49
*1106 FILLER_32_57
*1107 FILLER_32_65
*1108 FILLER_32_77
*1109 FILLER_32_83
*1110 FILLER_32_85
*1111 FILLER_32_91
*1112 FILLER_32_95
*1113 FILLER_33_111
*1114 FILLER_33_113
*1115 FILLER_33_13
*1116 FILLER_33_139
*1117 FILLER_33_146
*1118 FILLER_33_158
*1119 FILLER_33_166
*1120 FILLER_33_169
*1121 FILLER_33_181
*1122 FILLER_33_19
*1123 FILLER_33_193
*1124 FILLER_33_205
*1125 FILLER_33_217
*1126 FILLER_33_223
*1127 FILLER_33_225
*1128 FILLER_33_237
*1129 FILLER_33_249
*1130 FILLER_33_261
*1131 FILLER_33_273
*1132 FILLER_33_279
*1133 FILLER_33_281
*1134 FILLER_33_293
*1135 FILLER_33_3
*1136 FILLER_33_30
*1137 FILLER_33_54
*1138 FILLER_33_57
*1139 FILLER_33_65
*1140 FILLER_33_71
*1141 FILLER_33_75
*1142 FILLER_33_80
*1143 FILLER_33_87
*1144 FILLER_33_9
*1145 FILLER_33_99
*1146 FILLER_34_109
*1147 FILLER_34_121
*1148 FILLER_34_134
*1149 FILLER_34_141
*1150 FILLER_34_153
*1151 FILLER_34_165
*1152 FILLER_34_177
*1153 FILLER_34_18
*1154 FILLER_34_189
*1155 FILLER_34_195
*1156 FILLER_34_197
*1157 FILLER_34_209
*1158 FILLER_34_221
*1159 FILLER_34_233
*1160 FILLER_34_245
*1161 FILLER_34_251
*1162 FILLER_34_253
*1163 FILLER_34_26
*1164 FILLER_34_265
*1165 FILLER_34_277
*1166 FILLER_34_289
*1167 FILLER_34_29
*1168 FILLER_34_297
*1169 FILLER_34_3
*1170 FILLER_34_35
*1171 FILLER_34_43
*1172 FILLER_34_50
*1173 FILLER_34_58
*1174 FILLER_34_66
*1175 FILLER_34_78
*1176 FILLER_34_85
*1177 FILLER_34_9
*1178 FILLER_34_97
*1179 FILLER_35_110
*1180 FILLER_35_113
*1181 FILLER_35_125
*1182 FILLER_35_137
*1183 FILLER_35_149
*1184 FILLER_35_161
*1185 FILLER_35_167
*1186 FILLER_35_169
*1187 FILLER_35_181
*1188 FILLER_35_193
*1189 FILLER_35_205
*1190 FILLER_35_217
*1191 FILLER_35_223
*1192 FILLER_35_225
*1193 FILLER_35_237
*1194 FILLER_35_249
*1195 FILLER_35_261
*1196 FILLER_35_27
*1197 FILLER_35_273
*1198 FILLER_35_279
*1199 FILLER_35_281
*1200 FILLER_35_293
*1201 FILLER_35_3
*1202 FILLER_35_39
*1203 FILLER_35_51
*1204 FILLER_35_55
*1205 FILLER_35_57
*1206 FILLER_35_62
*1207 FILLER_35_74
*1208 FILLER_35_86
*1209 FILLER_35_98
*1210 FILLER_36_109
*1211 FILLER_36_121
*1212 FILLER_36_133
*1213 FILLER_36_139
*1214 FILLER_36_141
*1215 FILLER_36_15
*1216 FILLER_36_153
*1217 FILLER_36_165
*1218 FILLER_36_177
*1219 FILLER_36_189
*1220 FILLER_36_195
*1221 FILLER_36_197
*1222 FILLER_36_209
*1223 FILLER_36_22
*1224 FILLER_36_221
*1225 FILLER_36_233
*1226 FILLER_36_245
*1227 FILLER_36_251
*1228 FILLER_36_253
*1229 FILLER_36_265
*1230 FILLER_36_277
*1231 FILLER_36_289
*1232 FILLER_36_29
*1233 FILLER_36_297
*1234 FILLER_36_3
*1235 FILLER_36_41
*1236 FILLER_36_63
*1237 FILLER_36_74
*1238 FILLER_36_82
*1239 FILLER_36_85
*1240 FILLER_36_97
*1241 FILLER_37_105
*1242 FILLER_37_111
*1243 FILLER_37_113
*1244 FILLER_37_12
*1245 FILLER_37_125
*1246 FILLER_37_137
*1247 FILLER_37_149
*1248 FILLER_37_16
*1249 FILLER_37_161
*1250 FILLER_37_167
*1251 FILLER_37_169
*1252 FILLER_37_181
*1253 FILLER_37_193
*1254 FILLER_37_20
*1255 FILLER_37_205
*1256 FILLER_37_217
*1257 FILLER_37_223
*1258 FILLER_37_225
*1259 FILLER_37_237
*1260 FILLER_37_249
*1261 FILLER_37_261
*1262 FILLER_37_273
*1263 FILLER_37_279
*1264 FILLER_37_28
*1265 FILLER_37_281
*1266 FILLER_37_293
*1267 FILLER_37_3
*1268 FILLER_37_32
*1269 FILLER_37_36
*1270 FILLER_37_40
*1271 FILLER_37_52
*1272 FILLER_37_57
*1273 FILLER_37_69
*1274 FILLER_37_7
*1275 FILLER_37_81
*1276 FILLER_37_93
*1277 FILLER_38_109
*1278 FILLER_38_12
*1279 FILLER_38_121
*1280 FILLER_38_133
*1281 FILLER_38_139
*1282 FILLER_38_141
*1283 FILLER_38_153
*1284 FILLER_38_165
*1285 FILLER_38_177
*1286 FILLER_38_189
*1287 FILLER_38_195
*1288 FILLER_38_197
*1289 FILLER_38_20
*1290 FILLER_38_209
*1291 FILLER_38_221
*1292 FILLER_38_233
*1293 FILLER_38_245
*1294 FILLER_38_251
*1295 FILLER_38_253
*1296 FILLER_38_26
*1297 FILLER_38_265
*1298 FILLER_38_277
*1299 FILLER_38_289
*1300 FILLER_38_29
*1301 FILLER_38_297
*1302 FILLER_38_3
*1303 FILLER_38_51
*1304 FILLER_38_63
*1305 FILLER_38_75
*1306 FILLER_38_83
*1307 FILLER_38_85
*1308 FILLER_38_97
*1309 FILLER_39_105
*1310 FILLER_39_111
*1311 FILLER_39_113
*1312 FILLER_39_125
*1313 FILLER_39_137
*1314 FILLER_39_149
*1315 FILLER_39_161
*1316 FILLER_39_167
*1317 FILLER_39_169
*1318 FILLER_39_181
*1319 FILLER_39_193
*1320 FILLER_39_205
*1321 FILLER_39_217
*1322 FILLER_39_223
*1323 FILLER_39_225
*1324 FILLER_39_237
*1325 FILLER_39_249
*1326 FILLER_39_26
*1327 FILLER_39_261
*1328 FILLER_39_273
*1329 FILLER_39_279
*1330 FILLER_39_281
*1331 FILLER_39_293
*1332 FILLER_39_3
*1333 FILLER_39_35
*1334 FILLER_39_43
*1335 FILLER_39_54
*1336 FILLER_39_57
*1337 FILLER_39_69
*1338 FILLER_39_81
*1339 FILLER_39_93
*1340 FILLER_3_107
*1341 FILLER_3_111
*1342 FILLER_3_113
*1343 FILLER_3_125
*1344 FILLER_3_137
*1345 FILLER_3_144
*1346 FILLER_3_156
*1347 FILLER_3_169
*1348 FILLER_3_181
*1349 FILLER_3_193
*1350 FILLER_3_205
*1351 FILLER_3_217
*1352 FILLER_3_223
*1353 FILLER_3_225
*1354 FILLER_3_237
*1355 FILLER_3_249
*1356 FILLER_3_25
*1357 FILLER_3_261
*1358 FILLER_3_273
*1359 FILLER_3_279
*1360 FILLER_3_281
*1361 FILLER_3_293
*1362 FILLER_3_3
*1363 FILLER_3_37
*1364 FILLER_3_49
*1365 FILLER_3_55
*1366 FILLER_3_57
*1367 FILLER_3_69
*1368 FILLER_3_81
*1369 FILLER_3_93
*1370 FILLER_3_99
*1371 FILLER_40_109
*1372 FILLER_40_121
*1373 FILLER_40_133
*1374 FILLER_40_139
*1375 FILLER_40_141
*1376 FILLER_40_15
*1377 FILLER_40_153
*1378 FILLER_40_165
*1379 FILLER_40_177
*1380 FILLER_40_189
*1381 FILLER_40_195
*1382 FILLER_40_197
*1383 FILLER_40_209
*1384 FILLER_40_221
*1385 FILLER_40_233
*1386 FILLER_40_245
*1387 FILLER_40_251
*1388 FILLER_40_253
*1389 FILLER_40_265
*1390 FILLER_40_27
*1391 FILLER_40_277
*1392 FILLER_40_289
*1393 FILLER_40_29
*1394 FILLER_40_297
*1395 FILLER_40_3
*1396 FILLER_40_37
*1397 FILLER_40_61
*1398 FILLER_40_73
*1399 FILLER_40_81
*1400 FILLER_40_85
*1401 FILLER_40_97
*1402 FILLER_41_105
*1403 FILLER_41_111
*1404 FILLER_41_113
*1405 FILLER_41_125
*1406 FILLER_41_137
*1407 FILLER_41_149
*1408 FILLER_41_161
*1409 FILLER_41_167
*1410 FILLER_41_169
*1411 FILLER_41_18
*1412 FILLER_41_181
*1413 FILLER_41_193
*1414 FILLER_41_205
*1415 FILLER_41_217
*1416 FILLER_41_22
*1417 FILLER_41_223
*1418 FILLER_41_225
*1419 FILLER_41_237
*1420 FILLER_41_249
*1421 FILLER_41_261
*1422 FILLER_41_273
*1423 FILLER_41_279
*1424 FILLER_41_281
*1425 FILLER_41_293
*1426 FILLER_41_3
*1427 FILLER_41_30
*1428 FILLER_41_41
*1429 FILLER_41_53
*1430 FILLER_41_57
*1431 FILLER_41_69
*1432 FILLER_41_81
*1433 FILLER_41_9
*1434 FILLER_41_93
*1435 FILLER_42_109
*1436 FILLER_42_121
*1437 FILLER_42_133
*1438 FILLER_42_139
*1439 FILLER_42_141
*1440 FILLER_42_153
*1441 FILLER_42_165
*1442 FILLER_42_177
*1443 FILLER_42_189
*1444 FILLER_42_195
*1445 FILLER_42_197
*1446 FILLER_42_209
*1447 FILLER_42_221
*1448 FILLER_42_233
*1449 FILLER_42_245
*1450 FILLER_42_25
*1451 FILLER_42_251
*1452 FILLER_42_253
*1453 FILLER_42_265
*1454 FILLER_42_277
*1455 FILLER_42_289
*1456 FILLER_42_29
*1457 FILLER_42_297
*1458 FILLER_42_3
*1459 FILLER_42_36
*1460 FILLER_42_48
*1461 FILLER_42_60
*1462 FILLER_42_72
*1463 FILLER_42_85
*1464 FILLER_42_97
*1465 FILLER_43_10
*1466 FILLER_43_105
*1467 FILLER_43_111
*1468 FILLER_43_113
*1469 FILLER_43_125
*1470 FILLER_43_137
*1471 FILLER_43_149
*1472 FILLER_43_161
*1473 FILLER_43_167
*1474 FILLER_43_169
*1475 FILLER_43_181
*1476 FILLER_43_193
*1477 FILLER_43_205
*1478 FILLER_43_217
*1479 FILLER_43_22
*1480 FILLER_43_223
*1481 FILLER_43_225
*1482 FILLER_43_237
*1483 FILLER_43_249
*1484 FILLER_43_261
*1485 FILLER_43_273
*1486 FILLER_43_279
*1487 FILLER_43_281
*1488 FILLER_43_29
*1489 FILLER_43_293
*1490 FILLER_43_3
*1491 FILLER_43_40
*1492 FILLER_43_48
*1493 FILLER_43_53
*1494 FILLER_43_57
*1495 FILLER_43_69
*1496 FILLER_43_81
*1497 FILLER_43_93
*1498 FILLER_44_109
*1499 FILLER_44_11
*1500 FILLER_44_121
*1501 FILLER_44_133
*1502 FILLER_44_139
*1503 FILLER_44_141
*1504 FILLER_44_153
*1505 FILLER_44_165
*1506 FILLER_44_177
*1507 FILLER_44_189
*1508 FILLER_44_195
*1509 FILLER_44_197
*1510 FILLER_44_20
*1511 FILLER_44_209
*1512 FILLER_44_221
*1513 FILLER_44_233
*1514 FILLER_44_245
*1515 FILLER_44_251
*1516 FILLER_44_253
*1517 FILLER_44_265
*1518 FILLER_44_277
*1519 FILLER_44_289
*1520 FILLER_44_29
*1521 FILLER_44_297
*1522 FILLER_44_3
*1523 FILLER_44_34
*1524 FILLER_44_38
*1525 FILLER_44_59
*1526 FILLER_44_71
*1527 FILLER_44_83
*1528 FILLER_44_85
*1529 FILLER_44_97
*1530 FILLER_45_110
*1531 FILLER_45_113
*1532 FILLER_45_125
*1533 FILLER_45_137
*1534 FILLER_45_149
*1535 FILLER_45_161
*1536 FILLER_45_167
*1537 FILLER_45_169
*1538 FILLER_45_181
*1539 FILLER_45_193
*1540 FILLER_45_205
*1541 FILLER_45_217
*1542 FILLER_45_223
*1543 FILLER_45_225
*1544 FILLER_45_237
*1545 FILLER_45_249
*1546 FILLER_45_261
*1547 FILLER_45_273
*1548 FILLER_45_279
*1549 FILLER_45_281
*1550 FILLER_45_29
*1551 FILLER_45_293
*1552 FILLER_45_3
*1553 FILLER_45_42
*1554 FILLER_45_49
*1555 FILLER_45_55
*1556 FILLER_45_57
*1557 FILLER_45_62
*1558 FILLER_45_74
*1559 FILLER_45_86
*1560 FILLER_45_98
*1561 FILLER_46_109
*1562 FILLER_46_121
*1563 FILLER_46_133
*1564 FILLER_46_139
*1565 FILLER_46_141
*1566 FILLER_46_153
*1567 FILLER_46_165
*1568 FILLER_46_177
*1569 FILLER_46_189
*1570 FILLER_46_195
*1571 FILLER_46_197
*1572 FILLER_46_209
*1573 FILLER_46_221
*1574 FILLER_46_233
*1575 FILLER_46_245
*1576 FILLER_46_251
*1577 FILLER_46_253
*1578 FILLER_46_26
*1579 FILLER_46_265
*1580 FILLER_46_277
*1581 FILLER_46_289
*1582 FILLER_46_29
*1583 FILLER_46_297
*1584 FILLER_46_3
*1585 FILLER_46_37
*1586 FILLER_46_61
*1587 FILLER_46_73
*1588 FILLER_46_81
*1589 FILLER_46_85
*1590 FILLER_46_9
*1591 FILLER_46_97
*1592 FILLER_47_105
*1593 FILLER_47_11
*1594 FILLER_47_111
*1595 FILLER_47_113
*1596 FILLER_47_125
*1597 FILLER_47_137
*1598 FILLER_47_149
*1599 FILLER_47_16
*1600 FILLER_47_161
*1601 FILLER_47_167
*1602 FILLER_47_169
*1603 FILLER_47_181
*1604 FILLER_47_193
*1605 FILLER_47_205
*1606 FILLER_47_217
*1607 FILLER_47_223
*1608 FILLER_47_225
*1609 FILLER_47_237
*1610 FILLER_47_249
*1611 FILLER_47_25
*1612 FILLER_47_261
*1613 FILLER_47_273
*1614 FILLER_47_279
*1615 FILLER_47_281
*1616 FILLER_47_293
*1617 FILLER_47_3
*1618 FILLER_47_36
*1619 FILLER_47_45
*1620 FILLER_47_53
*1621 FILLER_47_57
*1622 FILLER_47_69
*1623 FILLER_47_81
*1624 FILLER_47_93
*1625 FILLER_48_109
*1626 FILLER_48_121
*1627 FILLER_48_133
*1628 FILLER_48_139
*1629 FILLER_48_141
*1630 FILLER_48_153
*1631 FILLER_48_165
*1632 FILLER_48_177
*1633 FILLER_48_189
*1634 FILLER_48_195
*1635 FILLER_48_197
*1636 FILLER_48_209
*1637 FILLER_48_221
*1638 FILLER_48_233
*1639 FILLER_48_245
*1640 FILLER_48_251
*1641 FILLER_48_253
*1642 FILLER_48_26
*1643 FILLER_48_265
*1644 FILLER_48_277
*1645 FILLER_48_289
*1646 FILLER_48_29
*1647 FILLER_48_297
*1648 FILLER_48_3
*1649 FILLER_48_37
*1650 FILLER_48_49
*1651 FILLER_48_61
*1652 FILLER_48_65
*1653 FILLER_48_77
*1654 FILLER_48_83
*1655 FILLER_48_85
*1656 FILLER_48_97
*1657 FILLER_49_110
*1658 FILLER_49_113
*1659 FILLER_49_125
*1660 FILLER_49_137
*1661 FILLER_49_149
*1662 FILLER_49_161