*SPEF "ieee 1481-1999"
*DESIGN "user_module_348255968419643987"
*DATE "11:11:11 Fri 11 11, 1111"
*VENDOR "OpenRCX"
*PROGRAM "Parallel Extraction"
*VERSION "1.0"
*DESIGN_FLOW "NAME_SCOPE LOCAL" "PIN_CAP NONE"
*DIVIDER /
*DELIMITER :
*BUS_DELIMITER []
*T_UNIT 1 NS
*C_UNIT 1 PF
*R_UNIT 1 OHM
*L_UNIT 1 HENRY

*NAME_MAP
*1 io_in[0]
*2 io_in[1]
*3 io_in[2]
*4 io_in[3]
*5 io_in[4]
*6 io_in[5]
*7 io_in[6]
*8 io_in[7]
*9 io_out[0]
*10 io_out[1]
*11 io_out[2]
*12 io_out[3]
*13 net9
*14 net10
*15 net11
*16 net12
*19 _00_
*20 _01_
*21 _02_
*22 _03_
*23 _04_
*24 _05_
*25 _06_
*26 _07_
*27 _08_
*28 _09_
*29 _10_
*30 _11_
*31 _12_
*32 _13_
*33 _14_
*34 _15_
*35 _16_
*36 _17_
*37 _18_
*38 _19_
*39 _20_
*40 _21_
*41 _22_
*42 _23_
*43 _24_
*44 _25_
*45 _26_
*46 _27_
*47 _28_
*48 _29_
*49 _30_
*50 _31_
*51 _32_
*52 clknet_0_io_in[0]
*53 clknet_1_0__leaf_io_in[0]
*54 clknet_1_1__leaf_io_in[0]
*55 flipflop1\.clk
*56 flipflop1\.d
*57 flipflop1\.q
*58 flipflop2\.q
*59 flipflop3\.clk
*60 flipflop3\.q
*61 flipflop4\.clk
*62 flipflop4\.q
*63 flipflop5\.clk
*64 flipflop5\.q
*65 flipflop6\.clk
*66 flipflop6\.q
*67 flipflop7\.clk
*68 flipflop7\.q
*69 flipflop8\.clk
*70 flipflop8\.d
*71 flipflop9\.d
*72 flipflop9\.q
*73 net1
*74 net2
*75 net3
*76 net4
*77 net5
*78 net6
*79 net7
*80 net8
*81 FILLER_0_109
*82 FILLER_0_113
*83 FILLER_0_125
*84 FILLER_0_137
*85 FILLER_0_141
*86 FILLER_0_153
*87 FILLER_0_165
*88 FILLER_0_169
*89 FILLER_0_181
*90 FILLER_0_193
*91 FILLER_0_197
*92 FILLER_0_209
*93 FILLER_0_221
*94 FILLER_0_225
*95 FILLER_0_237
*96 FILLER_0_249
*97 FILLER_0_25
*98 FILLER_0_253
*99 FILLER_0_265
*100 FILLER_0_277
*101 FILLER_0_281
*102 FILLER_0_29
*103 FILLER_0_293
*104 FILLER_0_3
*105 FILLER_0_34
*106 FILLER_0_41
*107 FILLER_0_53
*108 FILLER_0_57
*109 FILLER_0_69
*110 FILLER_0_81
*111 FILLER_0_85
*112 FILLER_0_97
*113 FILLER_10_109
*114 FILLER_10_121
*115 FILLER_10_13
*116 FILLER_10_133
*117 FILLER_10_139
*118 FILLER_10_141
*119 FILLER_10_153
*120 FILLER_10_165
*121 FILLER_10_177
*122 FILLER_10_189
*123 FILLER_10_195
*124 FILLER_10_197
*125 FILLER_10_209
*126 FILLER_10_221
*127 FILLER_10_233
*128 FILLER_10_245
*129 FILLER_10_251
*130 FILLER_10_253
*131 FILLER_10_26
*132 FILLER_10_265
*133 FILLER_10_277
*134 FILLER_10_289
*135 FILLER_10_29
*136 FILLER_10_297
*137 FILLER_10_3
*138 FILLER_10_34
*139 FILLER_10_46
*140 FILLER_10_58
*141 FILLER_10_70
*142 FILLER_10_82
*143 FILLER_10_85
*144 FILLER_10_9
*145 FILLER_10_97
*146 FILLER_11_105
*147 FILLER_11_11
*148 FILLER_11_111
*149 FILLER_11_113
*150 FILLER_11_125
*151 FILLER_11_137
*152 FILLER_11_149
*153 FILLER_11_161
*154 FILLER_11_167
*155 FILLER_11_169
*156 FILLER_11_18
*157 FILLER_11_181
*158 FILLER_11_193
*159 FILLER_11_205
*160 FILLER_11_217
*161 FILLER_11_223
*162 FILLER_11_225
*163 FILLER_11_237
*164 FILLER_11_249
*165 FILLER_11_261
*166 FILLER_11_273
*167 FILLER_11_279
*168 FILLER_11_281
*169 FILLER_11_293
*170 FILLER_11_3
*171 FILLER_11_38
*172 FILLER_11_50
*173 FILLER_11_57
*174 FILLER_11_69
*175 FILLER_11_81
*176 FILLER_11_93
*177 FILLER_12_109
*178 FILLER_12_121
*179 FILLER_12_13
*180 FILLER_12_133
*181 FILLER_12_139
*182 FILLER_12_141
*183 FILLER_12_153
*184 FILLER_12_165
*185 FILLER_12_177
*186 FILLER_12_189
*187 FILLER_12_195
*188 FILLER_12_197
*189 FILLER_12_209
*190 FILLER_12_21
*191 FILLER_12_221
*192 FILLER_12_233
*193 FILLER_12_245
*194 FILLER_12_25
*195 FILLER_12_251
*196 FILLER_12_253
*197 FILLER_12_265
*198 FILLER_12_277
*199 FILLER_12_289
*200 FILLER_12_29
*201 FILLER_12_297
*202 FILLER_12_3
*203 FILLER_12_37
*204 FILLER_12_49
*205 FILLER_12_61
*206 FILLER_12_73
*207 FILLER_12_81
*208 FILLER_12_85
*209 FILLER_12_97
*210 FILLER_13_105
*211 FILLER_13_111
*212 FILLER_13_113
*213 FILLER_13_125
*214 FILLER_13_137
*215 FILLER_13_149
*216 FILLER_13_16
*217 FILLER_13_161
*218 FILLER_13_167
*219 FILLER_13_169
*220 FILLER_13_181
*221 FILLER_13_193
*222 FILLER_13_20
*223 FILLER_13_205
*224 FILLER_13_217
*225 FILLER_13_223
*226 FILLER_13_225
*227 FILLER_13_237
*228 FILLER_13_249
*229 FILLER_13_261
*230 FILLER_13_27
*231 FILLER_13_273
*232 FILLER_13_279
*233 FILLER_13_281
*234 FILLER_13_293
*235 FILLER_13_3
*236 FILLER_13_34
*237 FILLER_13_46
*238 FILLER_13_54
*239 FILLER_13_57
*240 FILLER_13_69
*241 FILLER_13_81
*242 FILLER_13_9
*243 FILLER_13_93
*244 FILLER_14_109
*245 FILLER_14_121
*246 FILLER_14_133
*247 FILLER_14_139
*248 FILLER_14_141
*249 FILLER_14_153
*250 FILLER_14_16
*251 FILLER_14_165
*252 FILLER_14_177
*253 FILLER_14_189
*254 FILLER_14_195
*255 FILLER_14_197
*256 FILLER_14_209
*257 FILLER_14_221
*258 FILLER_14_23
*259 FILLER_14_233
*260 FILLER_14_245
*261 FILLER_14_251
*262 FILLER_14_253
*263 FILLER_14_265
*264 FILLER_14_27
*265 FILLER_14_277
*266 FILLER_14_289
*267 FILLER_14_29
*268 FILLER_14_297
*269 FILLER_14_3
*270 FILLER_14_36
*271 FILLER_14_48
*272 FILLER_14_60
*273 FILLER_14_7
*274 FILLER_14_72
*275 FILLER_14_85
*276 FILLER_14_97
*277 FILLER_15_105
*278 FILLER_15_111
*279 FILLER_15_113
*280 FILLER_15_125
*281 FILLER_15_137
*282 FILLER_15_149
*283 FILLER_15_161
*284 FILLER_15_167
*285 FILLER_15_169
*286 FILLER_15_181
*287 FILLER_15_19
*288 FILLER_15_193
*289 FILLER_15_205
*290 FILLER_15_217
*291 FILLER_15_223
*292 FILLER_15_225
*293 FILLER_15_237
*294 FILLER_15_249
*295 FILLER_15_261
*296 FILLER_15_273
*297 FILLER_15_279
*298 FILLER_15_281
*299 FILLER_15_293
*300 FILLER_15_3
*301 FILLER_15_31
*302 FILLER_15_43
*303 FILLER_15_55
*304 FILLER_15_57
*305 FILLER_15_69
*306 FILLER_15_81
*307 FILLER_15_93
*308 FILLER_16_109
*309 FILLER_16_121
*310 FILLER_16_13
*311 FILLER_16_133
*312 FILLER_16_139
*313 FILLER_16_141
*314 FILLER_16_153
*315 FILLER_16_165
*316 FILLER_16_177
*317 FILLER_16_189
*318 FILLER_16_195
*319 FILLER_16_197
*320 FILLER_16_209
*321 FILLER_16_221
*322 FILLER_16_233
*323 FILLER_16_24
*324 FILLER_16_245
*325 FILLER_16_251
*326 FILLER_16_253
*327 FILLER_16_265
*328 FILLER_16_277
*329 FILLER_16_289
*330 FILLER_16_29
*331 FILLER_16_297
*332 FILLER_16_3
*333 FILLER_16_41
*334 FILLER_16_53
*335 FILLER_16_65
*336 FILLER_16_77
*337 FILLER_16_83
*338 FILLER_16_85
*339 FILLER_16_97
*340 FILLER_17_10
*341 FILLER_17_105
*342 FILLER_17_111
*343 FILLER_17_113
*344 FILLER_17_125
*345 FILLER_17_137
*346 FILLER_17_149
*347 FILLER_17_161
*348 FILLER_17_167
*349 FILLER_17_169
*350 FILLER_17_181
*351 FILLER_17_193
*352 FILLER_17_205
*353 FILLER_17_217
*354 FILLER_17_22
*355 FILLER_17_223
*356 FILLER_17_225
*357 FILLER_17_237
*358 FILLER_17_249
*359 FILLER_17_261
*360 FILLER_17_273
*361 FILLER_17_279
*362 FILLER_17_281
*363 FILLER_17_293
*364 FILLER_17_3
*365 FILLER_17_34
*366 FILLER_17_46
*367 FILLER_17_54
*368 FILLER_17_57
*369 FILLER_17_69
*370 FILLER_17_81
*371 FILLER_17_93
*372 FILLER_18_109
*373 FILLER_18_121
*374 FILLER_18_133
*375 FILLER_18_139
*376 FILLER_18_141
*377 FILLER_18_153
*378 FILLER_18_165
*379 FILLER_18_177
*380 FILLER_18_189
*381 FILLER_18_195
*382 FILLER_18_197
*383 FILLER_18_20
*384 FILLER_18_209
*385 FILLER_18_221
*386 FILLER_18_233
*387 FILLER_18_245
*388 FILLER_18_251
*389 FILLER_18_253
*390 FILLER_18_265
*391 FILLER_18_277
*392 FILLER_18_289
*393 FILLER_18_29
*394 FILLER_18_297
*395 FILLER_18_3
*396 FILLER_18_41
*397 FILLER_18_53
*398 FILLER_18_65
*399 FILLER_18_77
*400 FILLER_18_8
*401 FILLER_18_83
*402 FILLER_18_85
*403 FILLER_18_97
*404 FILLER_19_105
*405 FILLER_19_111
*406 FILLER_19_113
*407 FILLER_19_125
*408 FILLER_19_137
*409 FILLER_19_149
*410 FILLER_19_15
*411 FILLER_19_161
*412 FILLER_19_167
*413 FILLER_19_169
*414 FILLER_19_181
*415 FILLER_19_193
*416 FILLER_19_205
*417 FILLER_19_217
*418 FILLER_19_223
*419 FILLER_19_225
*420 FILLER_19_237
*421 FILLER_19_249
*422 FILLER_19_261
*423 FILLER_19_27
*424 FILLER_19_273
*425 FILLER_19_279
*426 FILLER_19_281
*427 FILLER_19_293
*428 FILLER_19_3
*429 FILLER_19_39
*430 FILLER_19_51
*431 FILLER_19_55
*432 FILLER_19_57
*433 FILLER_19_69
*434 FILLER_19_81
*435 FILLER_19_93
*436 FILLER_1_105
*437 FILLER_1_111
*438 FILLER_1_113
*439 FILLER_1_125
*440 FILLER_1_137
*441 FILLER_1_14
*442 FILLER_1_149
*443 FILLER_1_161
*444 FILLER_1_167
*445 FILLER_1_169
*446 FILLER_1_181
*447 FILLER_1_193
*448 FILLER_1_205
*449 FILLER_1_217
*450 FILLER_1_223
*451 FILLER_1_225
*452 FILLER_1_237
*453 FILLER_1_249
*454 FILLER_1_261
*455 FILLER_1_273
*456 FILLER_1_279
*457 FILLER_1_281
*458 FILLER_1_293
*459 FILLER_1_3
*460 FILLER_1_34
*461 FILLER_1_46
*462 FILLER_1_54
*463 FILLER_1_57
*464 FILLER_1_69
*465 FILLER_1_81
*466 FILLER_1_93
*467 FILLER_20_109
*468 FILLER_20_121
*469 FILLER_20_133
*470 FILLER_20_139
*471 FILLER_20_141
*472 FILLER_20_153
*473 FILLER_20_165
*474 FILLER_20_177
*475 FILLER_20_189
*476 FILLER_20_195
*477 FILLER_20_197
*478 FILLER_20_20
*479 FILLER_20_209
*480 FILLER_20_221
*481 FILLER_20_233
*482 FILLER_20_245
*483 FILLER_20_251
*484 FILLER_20_253
*485 FILLER_20_265
*486 FILLER_20_277
*487 FILLER_20_289
*488 FILLER_20_29
*489 FILLER_20_297
*490 FILLER_20_3
*491 FILLER_20_41
*492 FILLER_20_53
*493 FILLER_20_65
*494 FILLER_20_77
*495 FILLER_20_8
*496 FILLER_20_83
*497 FILLER_20_85
*498 FILLER_20_97
*499 FILLER_21_105
*500 FILLER_21_111
*501 FILLER_21_113
*502 FILLER_21_125
*503 FILLER_21_137
*504 FILLER_21_149
*505 FILLER_21_15
*506 FILLER_21_161
*507 FILLER_21_167
*508 FILLER_21_169
*509 FILLER_21_181
*510 FILLER_21_193
*511 FILLER_21_205
*512 FILLER_21_217
*513 FILLER_21_223
*514 FILLER_21_225
*515 FILLER_21_237
*516 FILLER_21_249
*517 FILLER_21_261
*518 FILLER_21_27
*519 FILLER_21_273
*520 FILLER_21_279
*521 FILLER_21_281
*522 FILLER_21_293
*523 FILLER_21_3
*524 FILLER_21_39
*525 FILLER_21_51
*526 FILLER_21_55
*527 FILLER_21_57
*528 FILLER_21_69
*529 FILLER_21_81
*530 FILLER_21_93
*531 FILLER_22_109
*532 FILLER_22_121
*533 FILLER_22_133
*534 FILLER_22_139
*535 FILLER_22_141
*536 FILLER_22_15
*537 FILLER_22_153
*538 FILLER_22_165
*539 FILLER_22_177
*540 FILLER_22_189
*541 FILLER_22_195
*542 FILLER_22_197
*543 FILLER_22_209
*544 FILLER_22_221
*545 FILLER_22_233
*546 FILLER_22_245
*547 FILLER_22_251
*548 FILLER_22_253
*549 FILLER_22_265
*550 FILLER_22_27
*551 FILLER_22_277
*552 FILLER_22_289
*553 FILLER_22_29
*554 FILLER_22_297
*555 FILLER_22_3
*556 FILLER_22_41
*557 FILLER_22_53
*558 FILLER_22_65
*559 FILLER_22_77
*560 FILLER_22_83
*561 FILLER_22_85
*562 FILLER_22_97
*563 FILLER_23_105
*564 FILLER_23_111
*565 FILLER_23_113
*566 FILLER_23_125
*567 FILLER_23_137
*568 FILLER_23_149
*569 FILLER_23_15
*570 FILLER_23_161
*571 FILLER_23_167
*572 FILLER_23_169
*573 FILLER_23_181
*574 FILLER_23_193
*575 FILLER_23_205
*576 FILLER_23_217
*577 FILLER_23_223
*578 FILLER_23_225
*579 FILLER_23_237
*580 FILLER_23_249
*581 FILLER_23_261
*582 FILLER_23_27
*583 FILLER_23_273
*584 FILLER_23_279
*585 FILLER_23_281
*586 FILLER_23_293
*587 FILLER_23_3
*588 FILLER_23_39
*589 FILLER_23_51
*590 FILLER_23_55
*591 FILLER_23_57
*592 FILLER_23_69
*593 FILLER_23_81
*594 FILLER_23_93
*595 FILLER_24_109
*596 FILLER_24_121
*597 FILLER_24_133
*598 FILLER_24_139
*599 FILLER_24_141
*600 FILLER_24_153
*601 FILLER_24_165
*602 FILLER_24_177
*603 FILLER_24_189
*604 FILLER_24_195
*605 FILLER_24_197
*606 FILLER_24_20
*607 FILLER_24_209
*608 FILLER_24_221
*609 FILLER_24_233
*610 FILLER_24_245
*611 FILLER_24_251
*612 FILLER_24_253
*613 FILLER_24_265
*614 FILLER_24_277
*615 FILLER_24_289
*616 FILLER_24_29
*617 FILLER_24_297
*618 FILLER_24_3
*619 FILLER_24_41
*620 FILLER_24_53
*621 FILLER_24_65
*622 FILLER_24_77
*623 FILLER_24_8
*624 FILLER_24_83
*625 FILLER_24_85
*626 FILLER_24_97
*627 FILLER_25_105
*628 FILLER_25_111
*629 FILLER_25_113
*630 FILLER_25_125
*631 FILLER_25_137
*632 FILLER_25_149
*633 FILLER_25_15
*634 FILLER_25_161
*635 FILLER_25_167
*636 FILLER_25_169
*637 FILLER_25_181
*638 FILLER_25_193
*639 FILLER_25_205
*640 FILLER_25_217
*641 FILLER_25_223
*642 FILLER_25_225
*643 FILLER_25_237
*644 FILLER_25_249
*645 FILLER_25_261
*646 FILLER_25_27
*647 FILLER_25_273
*648 FILLER_25_279
*649 FILLER_25_281
*650 FILLER_25_293
*651 FILLER_25_3
*652 FILLER_25_39
*653 FILLER_25_51
*654 FILLER_25_55
*655 FILLER_25_57
*656 FILLER_25_69
*657 FILLER_25_81
*658 FILLER_25_93
*659 FILLER_26_109
*660 FILLER_26_121
*661 FILLER_26_133
*662 FILLER_26_139
*663 FILLER_26_141
*664 FILLER_26_15
*665 FILLER_26_153
*666 FILLER_26_165
*667 FILLER_26_177
*668 FILLER_26_189
*669 FILLER_26_195
*670 FILLER_26_197
*671 FILLER_26_209
*672 FILLER_26_221
*673 FILLER_26_233
*674 FILLER_26_245
*675 FILLER_26_251
*676 FILLER_26_253
*677 FILLER_26_265
*678 FILLER_26_27
*679 FILLER_26_277
*680 FILLER_26_289
*681 FILLER_26_29
*682 FILLER_26_297
*683 FILLER_26_3
*684 FILLER_26_41
*685 FILLER_26_53
*686 FILLER_26_65
*687 FILLER_26_77
*688 FILLER_26_83
*689 FILLER_26_85
*690 FILLER_26_97
*691 FILLER_27_105
*692 FILLER_27_111
*693 FILLER_27_113
*694 FILLER_27_125
*695 FILLER_27_137
*696 FILLER_27_149
*697 FILLER_27_161
*698 FILLER_27_167
*699 FILLER_27_169
*700 FILLER_27_181
*701 FILLER_27_193
*702 FILLER_27_20
*703 FILLER_27_205
*704 FILLER_27_217
*705 FILLER_27_223
*706 FILLER_27_225
*707 FILLER_27_237
*708 FILLER_27_249
*709 FILLER_27_261
*710 FILLER_27_273
*711 FILLER_27_279
*712 FILLER_27_281
*713 FILLER_27_293
*714 FILLER_27_3
*715 FILLER_27_32
*716 FILLER_27_44
*717 FILLER_27_57
*718 FILLER_27_69
*719 FILLER_27_8
*720 FILLER_27_81
*721 FILLER_27_93
*722 FILLER_28_109
*723 FILLER_28_121
*724 FILLER_28_133
*725 FILLER_28_139
*726 FILLER_28_141
*727 FILLER_28_15
*728 FILLER_28_153
*729 FILLER_28_165
*730 FILLER_28_177
*731 FILLER_28_189
*732 FILLER_28_195
*733 FILLER_28_197
*734 FILLER_28_209
*735 FILLER_28_221
*736 FILLER_28_233
*737 FILLER_28_245
*738 FILLER_28_251
*739 FILLER_28_253
*740 FILLER_28_265
*741 FILLER_28_27
*742 FILLER_28_277
*743 FILLER_28_289
*744 FILLER_28_29
*745 FILLER_28_297
*746 FILLER_28_3
*747 FILLER_28_41
*748 FILLER_28_53
*749 FILLER_28_65
*750 FILLER_28_77
*751 FILLER_28_83
*752 FILLER_28_85
*753 FILLER_28_97
*754 FILLER_29_105
*755 FILLER_29_11
*756 FILLER_29_111
*757 FILLER_29_113
*758 FILLER_29_125
*759 FILLER_29_137
*760 FILLER_29_149
*761 FILLER_29_161
*762 FILLER_29_167
*763 FILLER_29_169
*764 FILLER_29_181
*765 FILLER_29_193
*766 FILLER_29_205
*767 FILLER_29_217
*768 FILLER_29_223
*769 FILLER_29_225
*770 FILLER_29_23
*771 FILLER_29_237
*772 FILLER_29_249
*773 FILLER_29_261
*774 FILLER_29_273
*775 FILLER_29_279
*776 FILLER_29_281
*777 FILLER_29_293
*778 FILLER_29_3
*779 FILLER_29_35
*780 FILLER_29_47
*781 FILLER_29_55
*782 FILLER_29_57
*783 FILLER_29_69
*784 FILLER_29_81
*785 FILLER_29_93
*786 FILLER_2_109
*787 FILLER_2_121
*788 FILLER_2_133
*789 FILLER_2_139
*790 FILLER_2_141
*791 FILLER_2_153
*792 FILLER_2_165
*793 FILLER_2_177
*794 FILLER_2_189
*795 FILLER_2_195
*796 FILLER_2_197
*797 FILLER_2_209
*798 FILLER_2_221
*799 FILLER_2_23
*800 FILLER_2_233
*801 FILLER_2_245
*802 FILLER_2_251
*803 FILLER_2_253
*804 FILLER_2_265
*805 FILLER_2_27
*806 FILLER_2_277
*807 FILLER_2_289
*808 FILLER_2_29
*809 FILLER_2_297
*810 FILLER_2_3
*811 FILLER_2_34
*812 FILLER_2_41
*813 FILLER_2_53
*814 FILLER_2_65
*815 FILLER_2_77
*816 FILLER_2_83
*817 FILLER_2_85
*818 FILLER_2_97
*819 FILLER_30_109
*820 FILLER_30_121
*821 FILLER_30_133
*822 FILLER_30_139
*823 FILLER_30_141
*824 FILLER_30_153
*825 FILLER_30_165
*826 FILLER_30_177
*827 FILLER_30_189
*828 FILLER_30_195
*829 FILLER_30_197
*830 FILLER_30_209
*831 FILLER_30_21
*832 FILLER_30_221
*833 FILLER_30_233
*834 FILLER_30_245
*835 FILLER_30_251
*836 FILLER_30_253
*837 FILLER_30_265
*838 FILLER_30_27
*839 FILLER_30_277
*840 FILLER_30_289
*841 FILLER_30_29
*842 FILLER_30_297
*843 FILLER_30_3
*844 FILLER_30_41
*845 FILLER_30_53
*846 FILLER_30_65
*847 FILLER_30_77
*848 FILLER_30_83
*849 FILLER_30_85
*850 FILLER_30_97
*851 FILLER_31_105
*852 FILLER_31_111
*853 FILLER_31_113
*854 FILLER_31_125
*855 FILLER_31_137
*856 FILLER_31_149
*857 FILLER_31_161
*858 FILLER_31_167
*859 FILLER_31_169
*860 FILLER_31_181
*861 FILLER_31_193
*862 FILLER_31_205
*863 FILLER_31_21
*864 FILLER_31_217
*865 FILLER_31_223
*866 FILLER_31_225
*867 FILLER_31_237
*868 FILLER_31_249
*869 FILLER_31_261
*870 FILLER_31_273
*871 FILLER_31_279
*872 FILLER_31_281
*873 FILLER_31_293
*874 FILLER_31_3
*875 FILLER_31_33
*876 FILLER_31_45
*877 FILLER_31_53
*878 FILLER_31_57
*879 FILLER_31_69
*880 FILLER_31_81
*881 FILLER_31_9
*882 FILLER_31_93
*883 FILLER_32_109
*884 FILLER_32_121
*885 FILLER_32_133
*886 FILLER_32_139
*887 FILLER_32_141
*888 FILLER_32_15
*889 FILLER_32_153
*890 FILLER_32_165
*891 FILLER_32_177
*892 FILLER_32_189
*893 FILLER_32_195
*894 FILLER_32_197
*895 FILLER_32_209
*896 FILLER_32_221
*897 FILLER_32_233
*898 FILLER_32_245
*899 FILLER_32_251
*900 FILLER_32_253
*901 FILLER_32_265
*902 FILLER_32_27
*903 FILLER_32_277
*904 FILLER_32_289
*905 FILLER_32_29
*906 FILLER_32_297
*907 FILLER_32_3
*908 FILLER_32_41
*909 FILLER_32_53
*910 FILLER_32_65
*911 FILLER_32_77
*912 FILLER_32_83
*913 FILLER_32_85
*914 FILLER_32_97
*915 FILLER_33_105
*916 FILLER_33_111
*917 FILLER_33_113
*918 FILLER_33_125
*919 FILLER_33_137
*920 FILLER_33_149
*921 FILLER_33_15
*922 FILLER_33_161
*923 FILLER_33_167
*924 FILLER_33_169
*925 FILLER_33_181
*926 FILLER_33_193
*927 FILLER_33_205
*928 FILLER_33_217
*929 FILLER_33_223
*930 FILLER_33_225
*931 FILLER_33_237
*932 FILLER_33_249
*933 FILLER_33_261
*934 FILLER_33_27
*935 FILLER_33_273
*936 FILLER_33_279
*937 FILLER_33_281
*938 FILLER_33_293
*939 FILLER_33_3
*940 FILLER_33_39
*941 FILLER_33_51
*942 FILLER_33_55
*943 FILLER_33_57
*944 FILLER_33_69
*945 FILLER_33_81
*946 FILLER_33_93
*947 FILLER_34_109
*948 FILLER_34_121
*949 FILLER_34_133
*950 FILLER_34_139
*951 FILLER_34_141
*952 FILLER_34_153
*953 FILLER_34_165
*954 FILLER_34_177
*955 FILLER_34_189
*956 FILLER_34_195
*957 FILLER_34_197
*958 FILLER_34_209
*959 FILLER_34_21
*960 FILLER_34_221
*961 FILLER_34_233
*962 FILLER_34_245
*963 FILLER_34_251
*964 FILLER_34_253
*965 FILLER_34_265
*966 FILLER_34_27
*967 FILLER_34_277
*968 FILLER_34_289
*969 FILLER_34_29
*970 FILLER_34_297
*971 FILLER_34_3
*972 FILLER_34_41
*973 FILLER_34_53
*974 FILLER_34_65
*975 FILLER_34_77
*976 FILLER_34_83
*977 FILLER_34_85
*978 FILLER_34_9
*979 FILLER_34_97
*980 FILLER_35_105
*981 FILLER_35_111
*982 FILLER_35_113
*983 FILLER_35_125
*984 FILLER_35_137
*985 FILLER_35_149
*986 FILLER_35_15
*987 FILLER_35_161
*988 FILLER_35_167
*989 FILLER_35_169
*990 FILLER_35_181
*991 FILLER_35_193
*992 FILLER_35_205
*993 FILLER_35_217
*994 FILLER_35_223
*995 FILLER_35_225
*996 FILLER_35_237
*997 FILLER_35_249
*998 FILLER_35_261
*999 FILLER_35_27
*1000 FILLER_35_273
*1001 FILLER_35_279
*1002 FILLER_35_281
*1003 FILLER_35_293
*1004 FILLER_35_3
*1005 FILLER_35_39
*1006 FILLER_35_51
*1007 FILLER_35_55
*1008 FILLER_35_57
*1009 FILLER_35_69
*1010 FILLER_35_81
*1011 FILLER_35_93
*1012 FILLER_36_109
*1013 FILLER_36_121
*1014 FILLER_36_133
*1015 FILLER_36_139
*1016 FILLER_36_141
*1017 FILLER_36_153
*1018 FILLER_36_165
*1019 FILLER_36_177
*1020 FILLER_36_189
*1021 FILLER_36_195
*1022 FILLER_36_197
*1023 FILLER_36_209
*1024 FILLER_36_21
*1025 FILLER_36_221
*1026 FILLER_36_233
*1027 FILLER_36_245
*1028 FILLER_36_251
*1029 FILLER_36_253
*1030 FILLER_36_265
*1031 FILLER_36_27
*1032 FILLER_36_277
*1033 FILLER_36_289
*1034 FILLER_36_29
*1035 FILLER_36_297
*1036 FILLER_36_3
*1037 FILLER_36_41
*1038 FILLER_36_53
*1039 FILLER_36_65
*1040 FILLER_36_77
*1041 FILLER_36_83
*1042 FILLER_36_85
*1043 FILLER_36_97
*1044 FILLER_37_105
*1045 FILLER_37_111
*1046 FILLER_37_113
*1047 FILLER_37_125
*1048 FILLER_37_137
*1049 FILLER_37_149
*1050 FILLER_37_161
*1051 FILLER_37_167
*1052 FILLER_37_169
*1053 FILLER_37_181
*1054 FILLER_37_193
*1055 FILLER_37_205
*1056 FILLER_37_21
*1057 FILLER_37_217
*1058 FILLER_37_223
*1059 FILLER_37_225
*1060 FILLER_37_237
*1061 FILLER_37_249
*1062 FILLER_37_261
*1063 FILLER_37_273
*1064 FILLER_37_279
*1065 FILLER_37_281
*1066 FILLER_37_293
*1067 FILLER_37_3
*1068 FILLER_37_33
*1069 FILLER_37_45
*1070 FILLER_37_53
*1071 FILLER_37_57
*1072 FILLER_37_69
*1073 FILLER_37_81
*1074 FILLER_37_9
*1075 FILLER_37_93
*1076 FILLER_38_109
*1077 FILLER_38_121
*1078 FILLER_38_133
*1079 FILLER_38_139
*1080 FILLER_38_141
*1081 FILLER_38_153
*1082 FILLER_38_165
*1083 FILLER_38_177
*1084 FILLER_38_189
*1085 FILLER_38_195
*1086 FILLER_38_197
*1087 FILLER_38_209
*1088 FILLER_38_21
*1089 FILLER_38_221
*1090 FILLER_38_233
*1091 FILLER_38_245
*1092 FILLER_38_251
*1093 FILLER_38_253
*1094 FILLER_38_265
*1095 FILLER_38_27
*1096 FILLER_38_277
*1097 FILLER_38_289
*1098 FILLER_38_29
*1099 FILLER_38_297
*1100 FILLER_38_3
*1101 FILLER_38_41
*1102 FILLER_38_53
*1103 FILLER_38_65
*1104 FILLER_38_77
*1105 FILLER_38_83
*1106 FILLER_38_85
*1107 FILLER_38_9
*1108 FILLER_38_97
*1109 FILLER_39_105
*1110 FILLER_39_111
*1111 FILLER_39_113
*1112 FILLER_39_125
*1113 FILLER_39_137
*1114 FILLER_39_149
*1115 FILLER_39_161
*1116 FILLER_39_167
*1117 FILLER_39_169
*1118 FILLER_39_181
*1119 FILLER_39_193
*1120 FILLER_39_205
*1121 FILLER_39_21
*1122 FILLER_39_217
*1123 FILLER_39_223
*1124 FILLER_39_225
*1125 FILLER_39_237
*1126 FILLER_39_249
*1127 FILLER_39_261
*1128 FILLER_39_273
*1129 FILLER_39_279
*1130 FILLER_39_281
*1131 FILLER_39_293
*1132 FILLER_39_3
*1133 FILLER_39_33
*1134 FILLER_39_45
*1135 FILLER_39_53
*1136 FILLER_39_57
*1137 FILLER_39_69
*1138 FILLER_39_81
*1139 FILLER_39_93
*1140 FILLER_3_105
*1141 FILLER_3_111
*1142 FILLER_3_113
*1143 FILLER_3_12
*1144 FILLER_3_125
*1145 FILLER_3_137
*1146 FILLER_3_149
*1147 FILLER_3_161
*1148 FILLER_3_167
*1149 FILLER_3_169
*1150 FILLER_3_181
*1151 FILLER_3_193
*1152 FILLER_3_205
*1153 FILLER_3_217
*1154 FILLER_3_223
*1155 FILLER_3_225
*1156 FILLER_3_237
*1157 FILLER_3_249
*1158 FILLER_3_261
*1159 FILLER_3_273
*1160 FILLER_3_279
*1161 FILLER_3_281
*1162 FILLER_3_293
*1163 FILLER_3_3
*1164 FILLER_3_32
*1165 FILLER_3_39
*1166 FILLER_3_46
*1167 FILLER_3_54
*1168 FILLER_3_57
*1169 FILLER_3_69
*1170 FILLER_3_7
*1171 FILLER_3_81
*1172 FILLER_3_93
*1173 FILLER_40_10
*1174 FILLER_40_109
*1175 FILLER_40_121
*1176 FILLER_40_133
*1177 FILLER_40_139
*1178 FILLER_40_141
*1179 FILLER_40_153
*1180 FILLER_40_165
*1181 FILLER_40_177
*1182 FILLER_40_189
*1183 FILLER_40_195
*1184 FILLER_40_197
*1185 FILLER_40_209
*1186 FILLER_40_22
*1187 FILLER_40_221
*1188 FILLER_40_233
*1189 FILLER_40_245
*1190 FILLER_40_251
*1191 FILLER_40_253
*1192 FILLER_40_265
*1193 FILLER_40_277
*1194 FILLER_40_289
*1195 FILLER_40_29
*1196 FILLER_40_297
*1197 FILLER_40_3
*1198 FILLER_40_41
*1199 FILLER_40_53
*1200 FILLER_40_65
*1201 FILLER_40_77
*1202 FILLER_40_83
*1203 FILLER_40_85
*1204 FILLER_40_97
*1205 FILLER_41_105
*1206 FILLER_41_111
*1207 FILLER_41_113
*1208 FILLER_41_125
*1209 FILLER_41_137
*1210 FILLER_41_149
*1211 FILLER_41_161
*1212 FILLER_41_167
*1213 FILLER_41_169
*1214 FILLER_41_181
*1215 FILLER_41_193
*1216 FILLER_41_205
*1217 FILLER_41_21
*1218 FILLER_41_217
*1219 FILLER_41_223
*1220 FILLER_41_225
*1221 FILLER_41_237
*1222 FILLER_41_249
*1223 FILLER_41_261
*1224 FILLER_41_273
*1225 FILLER_41_279
*1226 FILLER_41_281
*1227 FILLER_41_293
*1228 FILLER_41_3
*1229 FILLER_41_33
*1230 FILLER_41_45
*1231 FILLER_41_53
*1232 FILLER_41_57
*1233 FILLER_41_69
*1234 FILLER_41_81
*1235 FILLER_41_9
*1236 FILLER_41_93
*1237 FILLER_42_109
*1238 FILLER_42_121
*1239 FILLER_42_133
*1240 FILLER_42_139
*1241 FILLER_42_141
*1242 FILLER_42_15
*1243 FILLER_42_153
*1244 FILLER_42_165
*1245 FILLER_42_177
*1246 FILLER_42_189
*1247 FILLER_42_195
*1248 FILLER_42_197
*1249 FILLER_42_209
*1250 FILLER_42_221
*1251 FILLER_42_233
*1252 FILLER_42_245
*1253 FILLER_42_251
*1254 FILLER_42_253
*1255 FILLER_42_265
*1256 FILLER_42_27
*1257 FILLER_42_277
*1258 FILLER_42_289
*1259 FILLER_42_29
*1260 FILLER_42_297
*1261 FILLER_42_3
*1262 FILLER_42_41
*1263 FILLER_42_53
*1264 FILLER_42_65
*1265 FILLER_42_77
*1266 FILLER_42_83
*1267 FILLER_42_85
*1268 FILLER_42_97
*1269 FILLER_43_105
*1270 FILLER_43_111
*1271 FILLER_43_113
*1272 FILLER_43_125
*1273 FILLER_43_137
*1274 FILLER_43_149
*1275 FILLER_43_15
*1276 FILLER_43_161
*1277 FILLER_43_167
*1278 FILLER_43_169
*1279 FILLER_43_181
*1280 FILLER_43_193
*1281 FILLER_43_205
*1282 FILLER_43_217
*1283 FILLER_43_223
*1284 FILLER_43_225
*1285 FILLER_43_237
*1286 FILLER_43_249
*1287 FILLER_43_261
*1288 FILLER_43_27
*1289 FILLER_43_273
*1290 FILLER_43_279
*1291 FILLER_43_281
*1292 FILLER_43_293
*1293 FILLER_43_3
*1294 FILLER_43_39
*1295 FILLER_43_51
*1296 FILLER_43_55
*1297 FILLER_43_57
*1298 FILLER_43_69
*1299 FILLER_43_81
*1300 FILLER_43_93
*1301 FILLER_44_109
*1302 FILLER_44_121
*1303 FILLER_44_133
*1304 FILLER_44_139
*1305 FILLER_44_141
*1306 FILLER_44_15
*1307 FILLER_44_153
*1308 FILLER_44_165
*1309 FILLER_44_177
*1310 FILLER_44_189
*1311 FILLER_44_195
*1312 FILLER_44_197
*1313 FILLER_44_209
*1314 FILLER_44_221
*1315 FILLER_44_233
*1316 FILLER_44_245
*1317 FILLER_44_251
*1318 FILLER_44_253
*1319 FILLER_44_265
*1320 FILLER_44_27
*1321 FILLER_44_277
*1322 FILLER_44_289
*1323 FILLER_44_29
*1324 FILLER_44_297
*1325 FILLER_44_3
*1326 FILLER_44_41
*1327 FILLER_44_53
*1328 FILLER_44_65
*1329 FILLER_44_77
*1330 FILLER_44_83
*1331 FILLER_44_85
*1332 FILLER_44_97
*1333 FILLER_45_105
*1334 FILLER_45_111
*1335 FILLER_45_113
*1336 FILLER_45_125
*1337 FILLER_45_137
*1338 FILLER_45_149
*1339 FILLER_45_15
*1340 FILLER_45_161
*1341 FILLER_45_167
*1342 FILLER_45_169
*1343 FILLER_45_181
*1344 FILLER_45_193
*1345 FILLER_45_205
*1346 FILLER_45_217
*1347 FILLER_45_223
*1348 FILLER_45_225
*1349 FILLER_45_237
*1350 FILLER_45_249
*1351 FILLER_45_261
*1352 FILLER_45_27
*1353 FILLER_45_273
*1354 FILLER_45_279
*1355 FILLER_45_281
*1356 FILLER_45_293
*1357 FILLER_45_3
*1358 FILLER_45_39
*1359 FILLER_45_51
*1360 FILLER_45_55
*1361 FILLER_45_57
*1362 FILLER_45_69
*1363 FILLER_45_81
*1364 FILLER_45_93
*1365 FILLER_46_109
*1366 FILLER_46_121
*1367 FILLER_46_133
*1368 FILLER_46_139
*1369 FILLER_46_141
*1370 FILLER_46_153
*1371 FILLER_46_165
*1372 FILLER_46_177
*1373 FILLER_46_189
*1374 FILLER_46_195
*1375 FILLER_46_197
*1376 FILLER_46_20
*1377 FILLER_46_209
*1378 FILLER_46_221
*1379 FILLER_46_233
*1380 FILLER_46_245
*1381 FILLER_46_251
*1382 FILLER_46_253
*1383 FILLER_46_265
*1384 FILLER_46_277
*1385 FILLER_46_289
*1386 FILLER_46_29
*1387 FILLER_46_297
*1388 FILLER_46_3
*1389 FILLER_46_41
*1390 FILLER_46_53
*1391 FILLER_46_65
*1392 FILLER_46_77
*1393 FILLER_46_8
*1394 FILLER_46_83
*1395 FILLER_46_85
*1396 FILLER_46_97
*1397 FILLER_47_105
*1398 FILLER_47_111
*1399 FILLER_47_113
*1400 FILLER_47_125
*1401 FILLER_47_137
*1402 FILLER_47_149
*1403 FILLER_47_15
*1404 FILLER_47_161
*1405 FILLER_47_167
*1406 FILLER_47_169
*1407 FILLER_47_181
*1408 FILLER_47_193
*1409 FILLER_47_205
*1410 FILLER_47_217
*1411 FILLER_47_223
*1412 FILLER_47_225
*1413 FILLER_47_237
*1414 FILLER_47_249
*1415 FILLER_47_261
*1416 FILLER_47_27
*1417 FILLER_47_273
*1418 FILLER_47_279
*1419 FILLER_47_281
*1420 FILLER_47_293
*1421 FILLER_47_3
*1422 FILLER_47_39
*1423 FILLER_47_51
*1424 FILLER_47_55
*1425 FILLER_47_57
*1426 FILLER_47_69
*1427 FILLER_47_81
*1428 FILLER_47_93
*1429 FILLER_48_109
*1430 FILLER_48_121
*1431 FILLER_48_133
*1432 FILLER_48_139
*1433 FILLER_48_141
*1434 FILLER_48_15
*1435 FILLER_48_153
*1436 FILLER_48_165
*1437 FILLER_48_177
*1438 FILLER_48_189
*1439 FILLER_48_195
*1440 FILLER_48_197
*1441 FILLER_48_209
*1442 FILLER_48_221
*1443 FILLER_48_233
*1444 FILLER_48_245
*1445 FILLER_48_251
*1446 FILLER_48_253
*1447 FILLER_48_265
*1448 FILLER_48_27
*1449 FILLER_48_277
*1450 FILLER_48_289
*1451 FILLER_48_29
*1452 FILLER_48_297
*1453 FILLER_48_3
*1454 FILLER_48_41
*1455 FILLER_48_53
*1456 FILLER_48_65
*1457 FILLER_48_77
*1458 FILLER_48_83
*1459 FILLER_48_85
*1460 FILLER_48_97
*1461 FILLER_49_105
*1462 FILLER_49_111
*1463 FILLER_49_113
*1464 FILLER_49_125
*1465 FILLER_49_137
*1466 FILLER_49_149
*1467 FILLER_49_15
*1468 FILLER_49_161
*1469 FILLER_49_167
*1470 FILLER_49_169
*1471 FILLER_49_181
*1472 FILLER_49_193
*1473 FILLER_49_205
*1474 FILLER_49_217
*1475 FILLER_49_223
*1476 FILLER_49_225
*1477 FILLER_49_237
*1478 FILLER_49_249
*1479 FILLER_49_261
*1480 FILLER_49_27
*1481 FILLER_49_273
*1482 FILLER_49_279
*1483 FILLER_49_281
*1484 FILLER_49_293
*1485 FILLER_49_3
*1486 FILLER_49_39
*1487 FILLER_49_51
*1488 FILLER_49_55
*1489 FILLER_49_57
*1490 FILLER_49_69
*1491 FILLER_49_81
*1492 FILLER_49_93
*1493 FILLER_4_109
*1494 FILLER_4_121
*1495 FILLER_4_13
*1496 FILLER_4_133
*1497 FILLER_4_139
*1498 FILLER_4_141
*1499 FILLER_4_153
*1500 FILLER_4_165
*1501 FILLER_4_177
*1502 FILLER_4_189
*1503 FILLER_4_195
*1504 FILLER_4_197
*1505 FILLER_4_209
*1506 FILLER_4_221
*1507 FILLER_4_233
*1508 FILLER_4_245
*1509 FILLER_4_251
*1510 FILLER_4_253
*1511 FILLER_4_26
*1512 FILLER_4_265
*1513 FILLER_4_277
*1514 FILLER_4_289
*1515 FILLER_4_29
*1516 FILLER_4_297
*1517 FILLER_4_3
*1518 FILLER_4_35
*1519 FILLER_4_52
*1520 FILLER_4_64
*1521 FILLER_4_76
*1522 FILLER_4_85
*1523 FILLER_4_97
*1524 FILLER_50_109
*1525 FILLER_50_121
*1526 FILLER_50_133
*1527 FILLER_50_139
*1528 FILLER_50_141
*1529 FILLER_50_153
*1530 FILLER_50_165
*1531 FILLER_50_177
*1532 FILLER_50_189
*1533 FILLER_50_195
*1534 FILLER_50_197
*1535 FILLER_50_20
*1536 FILLER_50_209
*1537 FILLER_50_221
*1538 FILLER_50_233
*1539 FILLER_50_245
*1540 FILLER_50_251
*1541 FILLER_50_253
*1542 FILLER_50_265
*1543 FILLER_50_277
*1544 FILLER_50_289
*1545 FILLER_50_29
*1546 FILLER_50_297
*1547 FILLER_50_3
*1548 FILLER_50_41
*1549 FILLER_50_53
*1550 FILLER_50_65
*1551 FILLER_50_77
*1552 FILLER_50_8
*1553 FILLER_50_83
*1554 FILLER_50_85
*1555 FILLER_50_97
*1556 FILLER_51_105
*1557 FILLER_51_111
*1558 FILLER_51_113
*1559 FILLER_51_125
*1560 FILLER_51_137
*1561 FILLER_51_149
*1562 FILLER_51_15
*1563 FILLER_51_161
*1564 FILLER_51_167
*1565 FILLER_51_169
*1566 FILLER_51_181
*1567 FILLER_51_193
*1568 FILLER_51_205
*1569 FILLER_51_217
*1570 FILLER_51_223
*1571 FILLER_51_225
*1572 FILLER_51_237
*1573 FILLER_51_249
*1574 FILLER_51_261
*1575 FILLER_51_27
*1576 FILLER_51_273
*1577 FILLER_51_279
*1578 FILLER_51_281
*1579 FILLER_51_293
*1580 FILLER_51_3
*1581 FILLER_51_39
*1582 FILLER_51_51
*1583 FILLER_51_55
*1584 FILLER_51_57
*1585 FILLER_51_69
*1586 FILLER_51_81
*1587 FILLER_51_93
*1588 FILLER_52_109
*1589 FILLER_52_121
*1590 FILLER_52_133
*1591 FILLER_52_139
*1592 FILLER_52_141
*1593 FILLER_52_15
*1594 FILLER_52_153
*1595 FILLER_52_165
*1596 FILLER_52_177
*1597 FILLER_52_189
*1598 FILLER_52_195
*1599 FILLER_52_197