*SPEF "ieee 1481-1999"
*DESIGN "user_module_362249236392794113"
*DATE "11:11:11 Fri 11 11, 1111"
*VENDOR "OpenRCX"
*PROGRAM "Parallel Extraction"
*VERSION "1.0"
*DESIGN_FLOW "NAME_SCOPE LOCAL" "PIN_CAP NONE"
*DIVIDER /
*DELIMITER :
*BUS_DELIMITER []
*T_UNIT 1 NS
*C_UNIT 1 PF
*R_UNIT 1 OHM
*L_UNIT 1 HENRY

*NAME_MAP
*1 io_in[0]
*2 io_in[1]
*3 io_in[2]
*4 io_in[3]
*5 io_in[4]
*6 io_in[5]
*7 io_in[6]
*8 io_in[7]
*9 io_out[0]
*10 io_out[1]
*11 io_out[2]
*12 io_out[3]
*13 net8
*14 net9
*15 net10
*16 net11
*19 _00_
*20 _01_
*21 _02_
*22 _03_
*23 _04_
*24 _05_
*25 _06_
*26 _07_
*27 _08_
*28 _09_
*29 _10_
*30 _11_
*31 net1
*32 net2
*33 net3
*34 net4
*35 net5
*36 net6
*37 net7
*38 or3\.out
*39 xor3\.out
*40 xor7\.out
*41 xor8\.out
*42 FILLER_0_109
*43 FILLER_0_113
*44 FILLER_0_125
*45 FILLER_0_137
*46 FILLER_0_141
*47 FILLER_0_15
*48 FILLER_0_153
*49 FILLER_0_165
*50 FILLER_0_169
*51 FILLER_0_181
*52 FILLER_0_193
*53 FILLER_0_197
*54 FILLER_0_209
*55 FILLER_0_221
*56 FILLER_0_225
*57 FILLER_0_237
*58 FILLER_0_249
*59 FILLER_0_253
*60 FILLER_0_265
*61 FILLER_0_27
*62 FILLER_0_277
*63 FILLER_0_281
*64 FILLER_0_29
*65 FILLER_0_293
*66 FILLER_0_3
*67 FILLER_0_41
*68 FILLER_0_53
*69 FILLER_0_57
*70 FILLER_0_69
*71 FILLER_0_81
*72 FILLER_0_85
*73 FILLER_0_97
*74 FILLER_10_109
*75 FILLER_10_121
*76 FILLER_10_133
*77 FILLER_10_139
*78 FILLER_10_141
*79 FILLER_10_15
*80 FILLER_10_153
*81 FILLER_10_165
*82 FILLER_10_177
*83 FILLER_10_189
*84 FILLER_10_195
*85 FILLER_10_197
*86 FILLER_10_209
*87 FILLER_10_221
*88 FILLER_10_233
*89 FILLER_10_245
*90 FILLER_10_251
*91 FILLER_10_253
*92 FILLER_10_265
*93 FILLER_10_27
*94 FILLER_10_277
*95 FILLER_10_289
*96 FILLER_10_29
*97 FILLER_10_297
*98 FILLER_10_3
*99 FILLER_10_41
*100 FILLER_10_53
*101 FILLER_10_65
*102 FILLER_10_77
*103 FILLER_10_83
*104 FILLER_10_85
*105 FILLER_10_97
*106 FILLER_11_105
*107 FILLER_11_111
*108 FILLER_11_113
*109 FILLER_11_125
*110 FILLER_11_137
*111 FILLER_11_149
*112 FILLER_11_15
*113 FILLER_11_161
*114 FILLER_11_167
*115 FILLER_11_169
*116 FILLER_11_181
*117 FILLER_11_193
*118 FILLER_11_205
*119 FILLER_11_217
*120 FILLER_11_223
*121 FILLER_11_225
*122 FILLER_11_237
*123 FILLER_11_249
*124 FILLER_11_261
*125 FILLER_11_27
*126 FILLER_11_273
*127 FILLER_11_279
*128 FILLER_11_281
*129 FILLER_11_293
*130 FILLER_11_3
*131 FILLER_11_39
*132 FILLER_11_51
*133 FILLER_11_55
*134 FILLER_11_57
*135 FILLER_11_69
*136 FILLER_11_81
*137 FILLER_11_93
*138 FILLER_12_109
*139 FILLER_12_121
*140 FILLER_12_133
*141 FILLER_12_139
*142 FILLER_12_141
*143 FILLER_12_153
*144 FILLER_12_165
*145 FILLER_12_177
*146 FILLER_12_189
*147 FILLER_12_195
*148 FILLER_12_197
*149 FILLER_12_20
*150 FILLER_12_209
*151 FILLER_12_221
*152 FILLER_12_233
*153 FILLER_12_245
*154 FILLER_12_251
*155 FILLER_12_253
*156 FILLER_12_265
*157 FILLER_12_277
*158 FILLER_12_289
*159 FILLER_12_29
*160 FILLER_12_297
*161 FILLER_12_3
*162 FILLER_12_41
*163 FILLER_12_53
*164 FILLER_12_65
*165 FILLER_12_77
*166 FILLER_12_8
*167 FILLER_12_83
*168 FILLER_12_85
*169 FILLER_12_97
*170 FILLER_13_105
*171 FILLER_13_111
*172 FILLER_13_113
*173 FILLER_13_125
*174 FILLER_13_137
*175 FILLER_13_149
*176 FILLER_13_15
*177 FILLER_13_161
*178 FILLER_13_167
*179 FILLER_13_169
*180 FILLER_13_181
*181 FILLER_13_193
*182 FILLER_13_205
*183 FILLER_13_217
*184 FILLER_13_223
*185 FILLER_13_225
*186 FILLER_13_237
*187 FILLER_13_249
*188 FILLER_13_261
*189 FILLER_13_27
*190 FILLER_13_273
*191 FILLER_13_279
*192 FILLER_13_281
*193 FILLER_13_293
*194 FILLER_13_3
*195 FILLER_13_39
*196 FILLER_13_51
*197 FILLER_13_55
*198 FILLER_13_57
*199 FILLER_13_69
*200 FILLER_13_81
*201 FILLER_13_93
*202 FILLER_14_109
*203 FILLER_14_121
*204 FILLER_14_133
*205 FILLER_14_139
*206 FILLER_14_141
*207 FILLER_14_15
*208 FILLER_14_153
*209 FILLER_14_165
*210 FILLER_14_177
*211 FILLER_14_189
*212 FILLER_14_195
*213 FILLER_14_197
*214 FILLER_14_209
*215 FILLER_14_221
*216 FILLER_14_233
*217 FILLER_14_245
*218 FILLER_14_251
*219 FILLER_14_253
*220 FILLER_14_265
*221 FILLER_14_27
*222 FILLER_14_277
*223 FILLER_14_289
*224 FILLER_14_29
*225 FILLER_14_297
*226 FILLER_14_3
*227 FILLER_14_41
*228 FILLER_14_53
*229 FILLER_14_65
*230 FILLER_14_77
*231 FILLER_14_83
*232 FILLER_14_85
*233 FILLER_14_97
*234 FILLER_15_105
*235 FILLER_15_111
*236 FILLER_15_113
*237 FILLER_15_125
*238 FILLER_15_137
*239 FILLER_15_149
*240 FILLER_15_15
*241 FILLER_15_161
*242 FILLER_15_167
*243 FILLER_15_169
*244 FILLER_15_181
*245 FILLER_15_193
*246 FILLER_15_205
*247 FILLER_15_217
*248 FILLER_15_223
*249 FILLER_15_225
*250 FILLER_15_237
*251 FILLER_15_249
*252 FILLER_15_261
*253 FILLER_15_27
*254 FILLER_15_273
*255 FILLER_15_279
*256 FILLER_15_281
*257 FILLER_15_293
*258 FILLER_15_3
*259 FILLER_15_39
*260 FILLER_15_51
*261 FILLER_15_55
*262 FILLER_15_57
*263 FILLER_15_69
*264 FILLER_15_81
*265 FILLER_15_93
*266 FILLER_16_109
*267 FILLER_16_121
*268 FILLER_16_133
*269 FILLER_16_139
*270 FILLER_16_141
*271 FILLER_16_153
*272 FILLER_16_165
*273 FILLER_16_177
*274 FILLER_16_189
*275 FILLER_16_195
*276 FILLER_16_197
*277 FILLER_16_20
*278 FILLER_16_209
*279 FILLER_16_221
*280 FILLER_16_233
*281 FILLER_16_245
*282 FILLER_16_251
*283 FILLER_16_253
*284 FILLER_16_265
*285 FILLER_16_277
*286 FILLER_16_289
*287 FILLER_16_29
*288 FILLER_16_297
*289 FILLER_16_3
*290 FILLER_16_41
*291 FILLER_16_53
*292 FILLER_16_65
*293 FILLER_16_77
*294 FILLER_16_8
*295 FILLER_16_83
*296 FILLER_16_85
*297 FILLER_16_97
*298 FILLER_17_105
*299 FILLER_17_111
*300 FILLER_17_113
*301 FILLER_17_125
*302 FILLER_17_137
*303 FILLER_17_149
*304 FILLER_17_15
*305 FILLER_17_161
*306 FILLER_17_167
*307 FILLER_17_169
*308 FILLER_17_181
*309 FILLER_17_193
*310 FILLER_17_205
*311 FILLER_17_217
*312 FILLER_17_223
*313 FILLER_17_225
*314 FILLER_17_237
*315 FILLER_17_249
*316 FILLER_17_261
*317 FILLER_17_27
*318 FILLER_17_273
*319 FILLER_17_279
*320 FILLER_17_281
*321 FILLER_17_293
*322 FILLER_17_3
*323 FILLER_17_39
*324 FILLER_17_51
*325 FILLER_17_55
*326 FILLER_17_57
*327 FILLER_17_69
*328 FILLER_17_81
*329 FILLER_17_93
*330 FILLER_18_109
*331 FILLER_18_12
*332 FILLER_18_121
*333 FILLER_18_133
*334 FILLER_18_139
*335 FILLER_18_141
*336 FILLER_18_153
*337 FILLER_18_165
*338 FILLER_18_177
*339 FILLER_18_189
*340 FILLER_18_195
*341 FILLER_18_197
*342 FILLER_18_209
*343 FILLER_18_221
*344 FILLER_18_233
*345 FILLER_18_24
*346 FILLER_18_245
*347 FILLER_18_251
*348 FILLER_18_253
*349 FILLER_18_265
*350 FILLER_18_277
*351 FILLER_18_289
*352 FILLER_18_29
*353 FILLER_18_297
*354 FILLER_18_3
*355 FILLER_18_41
*356 FILLER_18_53
*357 FILLER_18_65
*358 FILLER_18_77
*359 FILLER_18_83
*360 FILLER_18_85
*361 FILLER_18_97
*362 FILLER_19_105
*363 FILLER_19_111
*364 FILLER_19_113
*365 FILLER_19_125
*366 FILLER_19_137
*367 FILLER_19_149
*368 FILLER_19_15
*369 FILLER_19_161
*370 FILLER_19_167
*371 FILLER_19_169
*372 FILLER_19_181
*373 FILLER_19_193
*374 FILLER_19_205
*375 FILLER_19_217
*376 FILLER_19_22
*377 FILLER_19_223
*378 FILLER_19_225
*379 FILLER_19_237
*380 FILLER_19_249
*381 FILLER_19_261
*382 FILLER_19_273
*383 FILLER_19_279
*384 FILLER_19_281
*385 FILLER_19_293
*386 FILLER_19_3
*387 FILLER_19_34
*388 FILLER_19_46
*389 FILLER_19_54
*390 FILLER_19_57
*391 FILLER_19_69
*392 FILLER_19_81
*393 FILLER_19_93
*394 FILLER_1_105
*395 FILLER_1_111
*396 FILLER_1_113
*397 FILLER_1_125
*398 FILLER_1_137
*399 FILLER_1_149
*400 FILLER_1_15
*401 FILLER_1_161
*402 FILLER_1_167
*403 FILLER_1_169
*404 FILLER_1_181
*405 FILLER_1_193
*406 FILLER_1_205
*407 FILLER_1_217
*408 FILLER_1_223
*409 FILLER_1_225
*410 FILLER_1_237
*411 FILLER_1_249
*412 FILLER_1_261
*413 FILLER_1_27
*414 FILLER_1_273
*415 FILLER_1_279
*416 FILLER_1_281
*417 FILLER_1_293
*418 FILLER_1_3
*419 FILLER_1_39
*420 FILLER_1_51
*421 FILLER_1_55
*422 FILLER_1_57
*423 FILLER_1_69
*424 FILLER_1_81
*425 FILLER_1_93
*426 FILLER_20_109
*427 FILLER_20_121
*428 FILLER_20_133
*429 FILLER_20_139
*430 FILLER_20_14
*431 FILLER_20_141
*432 FILLER_20_153
*433 FILLER_20_165
*434 FILLER_20_177
*435 FILLER_20_189
*436 FILLER_20_195
*437 FILLER_20_197
*438 FILLER_20_209
*439 FILLER_20_221
*440 FILLER_20_23
*441 FILLER_20_233
*442 FILLER_20_245
*443 FILLER_20_251
*444 FILLER_20_253
*445 FILLER_20_265
*446 FILLER_20_27
*447 FILLER_20_277
*448 FILLER_20_289
*449 FILLER_20_29
*450 FILLER_20_297
*451 FILLER_20_3
*452 FILLER_20_34
*453 FILLER_20_46
*454 FILLER_20_58
*455 FILLER_20_70
*456 FILLER_20_82
*457 FILLER_20_85
*458 FILLER_20_97
*459 FILLER_21_105
*460 FILLER_21_111
*461 FILLER_21_113
*462 FILLER_21_125
*463 FILLER_21_137
*464 FILLER_21_14
*465 FILLER_21_149
*466 FILLER_21_161
*467 FILLER_21_167
*468 FILLER_21_169
*469 FILLER_21_181
*470 FILLER_21_193
*471 FILLER_21_205
*472 FILLER_21_217
*473 FILLER_21_223
*474 FILLER_21_225
*475 FILLER_21_23
*476 FILLER_21_237
*477 FILLER_21_249
*478 FILLER_21_261
*479 FILLER_21_273
*480 FILLER_21_279
*481 FILLER_21_281
*482 FILLER_21_293
*483 FILLER_21_3
*484 FILLER_21_35
*485 FILLER_21_47
*486 FILLER_21_55
*487 FILLER_21_57
*488 FILLER_21_69
*489 FILLER_21_7
*490 FILLER_21_81
*491 FILLER_21_93
*492 FILLER_22_109
*493 FILLER_22_121
*494 FILLER_22_133
*495 FILLER_22_139
*496 FILLER_22_14
*497 FILLER_22_141
*498 FILLER_22_153
*499 FILLER_22_165
*500 FILLER_22_177
*501 FILLER_22_189
*502 FILLER_22_195
*503 FILLER_22_197
*504 FILLER_22_209
*505 FILLER_22_221
*506 FILLER_22_23
*507 FILLER_22_233
*508 FILLER_22_245
*509 FILLER_22_251
*510 FILLER_22_253
*511 FILLER_22_265
*512 FILLER_22_27
*513 FILLER_22_277
*514 FILLER_22_289
*515 FILLER_22_29
*516 FILLER_22_297
*517 FILLER_22_3
*518 FILLER_22_41
*519 FILLER_22_53
*520 FILLER_22_65
*521 FILLER_22_7
*522 FILLER_22_77
*523 FILLER_22_83
*524 FILLER_22_85
*525 FILLER_22_97
*526 FILLER_23_105
*527 FILLER_23_111
*528 FILLER_23_113
*529 FILLER_23_125
*530 FILLER_23_137
*531 FILLER_23_149
*532 FILLER_23_16
*533 FILLER_23_161
*534 FILLER_23_167
*535 FILLER_23_169
*536 FILLER_23_181
*537 FILLER_23_193
*538 FILLER_23_205
*539 FILLER_23_217
*540 FILLER_23_223
*541 FILLER_23_225
*542 FILLER_23_23
*543 FILLER_23_237
*544 FILLER_23_249
*545 FILLER_23_261
*546 FILLER_23_273
*547 FILLER_23_279
*548 FILLER_23_281
*549 FILLER_23_293
*550 FILLER_23_3
*551 FILLER_23_35
*552 FILLER_23_47
*553 FILLER_23_55
*554 FILLER_23_57
*555 FILLER_23_69
*556 FILLER_23_81
*557 FILLER_23_9
*558 FILLER_23_93
*559 FILLER_24_109
*560 FILLER_24_121
*561 FILLER_24_133
*562 FILLER_24_139
*563 FILLER_24_141
*564 FILLER_24_15
*565 FILLER_24_153
*566 FILLER_24_165
*567 FILLER_24_177
*568 FILLER_24_189
*569 FILLER_24_195
*570 FILLER_24_197
*571 FILLER_24_209
*572 FILLER_24_221
*573 FILLER_24_23
*574 FILLER_24_233
*575 FILLER_24_245
*576 FILLER_24_251
*577 FILLER_24_253
*578 FILLER_24_265
*579 FILLER_24_27
*580 FILLER_24_277
*581 FILLER_24_289
*582 FILLER_24_29
*583 FILLER_24_297
*584 FILLER_24_3
*585 FILLER_24_41
*586 FILLER_24_53
*587 FILLER_24_65
*588 FILLER_24_77
*589 FILLER_24_83
*590 FILLER_24_85
*591 FILLER_24_97
*592 FILLER_25_105
*593 FILLER_25_111
*594 FILLER_25_113
*595 FILLER_25_125
*596 FILLER_25_137
*597 FILLER_25_149
*598 FILLER_25_161
*599 FILLER_25_167
*600 FILLER_25_169
*601 FILLER_25_181
*602 FILLER_25_193
*603 FILLER_25_20
*604 FILLER_25_205
*605 FILLER_25_217
*606 FILLER_25_223
*607 FILLER_25_225
*608 FILLER_25_237
*609 FILLER_25_249
*610 FILLER_25_261
*611 FILLER_25_273
*612 FILLER_25_279
*613 FILLER_25_281
*614 FILLER_25_293
*615 FILLER_25_3
*616 FILLER_25_32
*617 FILLER_25_44
*618 FILLER_25_57
*619 FILLER_25_69
*620 FILLER_25_8
*621 FILLER_25_81
*622 FILLER_25_93
*623 FILLER_26_109
*624 FILLER_26_121
*625 FILLER_26_133
*626 FILLER_26_139
*627 FILLER_26_14
*628 FILLER_26_141
*629 FILLER_26_153
*630 FILLER_26_165
*631 FILLER_26_177
*632 FILLER_26_189
*633 FILLER_26_195
*634 FILLER_26_197
*635 FILLER_26_209
*636 FILLER_26_221
*637 FILLER_26_233
*638 FILLER_26_24
*639 FILLER_26_245
*640 FILLER_26_251
*641 FILLER_26_253
*642 FILLER_26_265
*643 FILLER_26_277
*644 FILLER_26_289
*645 FILLER_26_29
*646 FILLER_26_297
*647 FILLER_26_3
*648 FILLER_26_41
*649 FILLER_26_53
*650 FILLER_26_65
*651 FILLER_26_77
*652 FILLER_26_83
*653 FILLER_26_85
*654 FILLER_26_97
*655 FILLER_27_105
*656 FILLER_27_111
*657 FILLER_27_113
*658 FILLER_27_125
*659 FILLER_27_137
*660 FILLER_27_149
*661 FILLER_27_161
*662 FILLER_27_167
*663 FILLER_27_169
*664 FILLER_27_181
*665 FILLER_27_193
*666 FILLER_27_20
*667 FILLER_27_205
*668 FILLER_27_217
*669 FILLER_27_223
*670 FILLER_27_225
*671 FILLER_27_237
*672 FILLER_27_249
*673 FILLER_27_261
*674 FILLER_27_273
*675 FILLER_27_279
*676 FILLER_27_281
*677 FILLER_27_293
*678 FILLER_27_3
*679 FILLER_27_32
*680 FILLER_27_44
*681 FILLER_27_57
*682 FILLER_27_69
*683 FILLER_27_8
*684 FILLER_27_81
*685 FILLER_27_93
*686 FILLER_28_109
*687 FILLER_28_121
*688 FILLER_28_133
*689 FILLER_28_139
*690 FILLER_28_14
*691 FILLER_28_141
*692 FILLER_28_153
*693 FILLER_28_165
*694 FILLER_28_177
*695 FILLER_28_189
*696 FILLER_28_195
*697 FILLER_28_197
*698 FILLER_28_209
*699 FILLER_28_221
*700 FILLER_28_233
*701 FILLER_28_245
*702 FILLER_28_251
*703 FILLER_28_253
*704 FILLER_28_26
*705 FILLER_28_265
*706 FILLER_28_277
*707 FILLER_28_289
*708 FILLER_28_29
*709 FILLER_28_297
*710 FILLER_28_3
*711 FILLER_28_41
*712 FILLER_28_53
*713 FILLER_28_65
*714 FILLER_28_7
*715 FILLER_28_77
*716 FILLER_28_83
*717 FILLER_28_85
*718 FILLER_28_97
*719 FILLER_29_105
*720 FILLER_29_111
*721 FILLER_29_113
*722 FILLER_29_12
*723 FILLER_29_125
*724 FILLER_29_137
*725 FILLER_29_149
*726 FILLER_29_161
*727 FILLER_29_167
*728 FILLER_29_169
*729 FILLER_29_181
*730 FILLER_29_193
*731 FILLER_29_205
*732 FILLER_29_217
*733 FILLER_29_223
*734 FILLER_29_225
*735 FILLER_29_237
*736 FILLER_29_24
*737 FILLER_29_249
*738 FILLER_29_261
*739 FILLER_29_273
*740 FILLER_29_279
*741 FILLER_29_281
*742 FILLER_29_293
*743 FILLER_29_3
*744 FILLER_29_36
*745 FILLER_29_48
*746 FILLER_29_57
*747 FILLER_29_69
*748 FILLER_29_81
*749 FILLER_29_93
*750 FILLER_2_109
*751 FILLER_2_121
*752 FILLER_2_133
*753 FILLER_2_139
*754 FILLER_2_141
*755 FILLER_2_15
*756 FILLER_2_153
*757 FILLER_2_165
*758 FILLER_2_177
*759 FILLER_2_189
*760 FILLER_2_195
*761 FILLER_2_197
*762 FILLER_2_209
*763 FILLER_2_221
*764 FILLER_2_233
*765 FILLER_2_245
*766 FILLER_2_251
*767 FILLER_2_253
*768 FILLER_2_265
*769 FILLER_2_27
*770 FILLER_2_277
*771 FILLER_2_289
*772 FILLER_2_29
*773 FILLER_2_297
*774 FILLER_2_3
*775 FILLER_2_41
*776 FILLER_2_53
*777 FILLER_2_65
*778 FILLER_2_77
*779 FILLER_2_83
*780 FILLER_2_85
*781 FILLER_2_97
*782 FILLER_30_109
*783 FILLER_30_121
*784 FILLER_30_133
*785 FILLER_30_139
*786 FILLER_30_141
*787 FILLER_30_15
*788 FILLER_30_153
*789 FILLER_30_165
*790 FILLER_30_177
*791 FILLER_30_189
*792 FILLER_30_195
*793 FILLER_30_197
*794 FILLER_30_209
*795 FILLER_30_221
*796 FILLER_30_233
*797 FILLER_30_245
*798 FILLER_30_251
*799 FILLER_30_253
*800 FILLER_30_265
*801 FILLER_30_27
*802 FILLER_30_277
*803 FILLER_30_289
*804 FILLER_30_29
*805 FILLER_30_297
*806 FILLER_30_3
*807 FILLER_30_41
*808 FILLER_30_53
*809 FILLER_30_65
*810 FILLER_30_77
*811 FILLER_30_83
*812 FILLER_30_85
*813 FILLER_30_97
*814 FILLER_31_105
*815 FILLER_31_11
*816 FILLER_31_111
*817 FILLER_31_113
*818 FILLER_31_125
*819 FILLER_31_137
*820 FILLER_31_149
*821 FILLER_31_161
*822 FILLER_31_167
*823 FILLER_31_169
*824 FILLER_31_181
*825 FILLER_31_193
*826 FILLER_31_205
*827 FILLER_31_217
*828 FILLER_31_223
*829 FILLER_31_225
*830 FILLER_31_23
*831 FILLER_31_237
*832 FILLER_31_249
*833 FILLER_31_261
*834 FILLER_31_273
*835 FILLER_31_279
*836 FILLER_31_281
*837 FILLER_31_293
*838 FILLER_31_3
*839 FILLER_31_35
*840 FILLER_31_47
*841 FILLER_31_55
*842 FILLER_31_57
*843 FILLER_31_69
*844 FILLER_31_81
*845 FILLER_31_93
*846 FILLER_32_109
*847 FILLER_32_121
*848 FILLER_32_133
*849 FILLER_32_139
*850 FILLER_32_141
*851 FILLER_32_15
*852 FILLER_32_153
*853 FILLER_32_165
*854 FILLER_32_177
*855 FILLER_32_189
*856 FILLER_32_195
*857 FILLER_32_197
*858 FILLER_32_209
*859 FILLER_32_221
*860 FILLER_32_233
*861 FILLER_32_245
*862 FILLER_32_251
*863 FILLER_32_253
*864 FILLER_32_265
*865 FILLER_32_27
*866 FILLER_32_277
*867 FILLER_32_289
*868 FILLER_32_29
*869 FILLER_32_297
*870 FILLER_32_3
*871 FILLER_32_41
*872 FILLER_32_53
*873 FILLER_32_65
*874 FILLER_32_77
*875 FILLER_32_83
*876 FILLER_32_85
*877 FILLER_32_97
*878 FILLER_33_10
*879 FILLER_33_105
*880 FILLER_33_111
*881 FILLER_33_113
*882 FILLER_33_125
*883 FILLER_33_137
*884 FILLER_33_149
*885 FILLER_33_161
*886 FILLER_33_167
*887 FILLER_33_169
*888 FILLER_33_181
*889 FILLER_33_193
*890 FILLER_33_205
*891 FILLER_33_217
*892 FILLER_33_22
*893 FILLER_33_223
*894 FILLER_33_225
*895 FILLER_33_237
*896 FILLER_33_249
*897 FILLER_33_261
*898 FILLER_33_273
*899 FILLER_33_279
*900 FILLER_33_281
*901 FILLER_33_293
*902 FILLER_33_3
*903 FILLER_33_34
*904 FILLER_33_46
*905 FILLER_33_54
*906 FILLER_33_57
*907 FILLER_33_69
*908 FILLER_33_81
*909 FILLER_33_93
*910 FILLER_34_109
*911 FILLER_34_121
*912 FILLER_34_133
*913 FILLER_34_139
*914 FILLER_34_141
*915 FILLER_34_15
*916 FILLER_34_153
*917 FILLER_34_165
*918 FILLER_34_177
*919 FILLER_34_189
*920 FILLER_34_195
*921 FILLER_34_197
*922 FILLER_34_209
*923 FILLER_34_221
*924 FILLER_34_233
*925 FILLER_34_245
*926 FILLER_34_251
*927 FILLER_34_253
*928 FILLER_34_265
*929 FILLER_34_27
*930 FILLER_34_277
*931 FILLER_34_289
*932 FILLER_34_29
*933 FILLER_34_297
*934 FILLER_34_3
*935 FILLER_34_41
*936 FILLER_34_53
*937 FILLER_34_65
*938 FILLER_34_77
*939 FILLER_34_83
*940 FILLER_34_85
*941 FILLER_34_97
*942 FILLER_35_105
*943 FILLER_35_11
*944 FILLER_35_111
*945 FILLER_35_113
*946 FILLER_35_125
*947 FILLER_35_137
*948 FILLER_35_149
*949 FILLER_35_161
*950 FILLER_35_167
*951 FILLER_35_169
*952 FILLER_35_181
*953 FILLER_35_193
*954 FILLER_35_205
*955 FILLER_35_217
*956 FILLER_35_223
*957 FILLER_35_225
*958 FILLER_35_23
*959 FILLER_35_237
*960 FILLER_35_249
*961 FILLER_35_261
*962 FILLER_35_273
*963 FILLER_35_279
*964 FILLER_35_281
*965 FILLER_35_293
*966 FILLER_35_3
*967 FILLER_35_35
*968 FILLER_35_47
*969 FILLER_35_55
*970 FILLER_35_57
*971 FILLER_35_69
*972 FILLER_35_81
*973 FILLER_35_93
*974 FILLER_36_109
*975 FILLER_36_121
*976 FILLER_36_133
*977 FILLER_36_139
*978 FILLER_36_141
*979 FILLER_36_15
*980 FILLER_36_153
*981 FILLER_36_165
*982 FILLER_36_177
*983 FILLER_36_189
*984 FILLER_36_195
*985 FILLER_36_197
*986 FILLER_36_209
*987 FILLER_36_221
*988 FILLER_36_233
*989 FILLER_36_245
*990 FILLER_36_251
*991 FILLER_36_253
*992 FILLER_36_265
*993 FILLER_36_27
*994 FILLER_36_277
*995 FILLER_36_289
*996 FILLER_36_29
*997 FILLER_36_297
*998 FILLER_36_3
*999 FILLER_36_41
*1000 FILLER_36_53
*1001 FILLER_36_65
*1002 FILLER_36_77
*1003 FILLER_36_83
*1004 FILLER_36_85
*1005 FILLER_36_97
*1006 FILLER_37_105
*1007 FILLER_37_111
*1008 FILLER_37_113
*1009 FILLER_37_125
*1010 FILLER_37_137
*1011 FILLER_37_149
*1012 FILLER_37_15
*1013 FILLER_37_161
*1014 FILLER_37_167
*1015 FILLER_37_169
*1016 FILLER_37_181
*1017 FILLER_37_193
*1018 FILLER_37_205
*1019 FILLER_37_217
*1020 FILLER_37_223
*1021 FILLER_37_225
*1022 FILLER_37_237
*1023 FILLER_37_249
*1024 FILLER_37_261
*1025 FILLER_37_27
*1026 FILLER_37_273
*1027 FILLER_37_279
*1028 FILLER_37_281
*1029 FILLER_37_293
*1030 FILLER_37_3
*1031 FILLER_37_39
*1032 FILLER_37_51
*1033 FILLER_37_55
*1034 FILLER_37_57
*1035 FILLER_37_69
*1036 FILLER_37_81
*1037 FILLER_37_93
*1038 FILLER_38_109
*1039 FILLER_38_121
*1040 FILLER_38_133
*1041 FILLER_38_139
*1042 FILLER_38_141
*1043 FILLER_38_15
*1044 FILLER_38_153
*1045 FILLER_38_165
*1046 FILLER_38_177
*1047 FILLER_38_189
*1048 FILLER_38_195
*1049 FILLER_38_197
*1050 FILLER_38_209
*1051 FILLER_38_221
*1052 FILLER_38_233
*1053 FILLER_38_245
*1054 FILLER_38_251
*1055 FILLER_38_253
*1056 FILLER_38_265
*1057 FILLER_38_27
*1058 FILLER_38_277
*1059 FILLER_38_289
*1060 FILLER_38_29
*1061 FILLER_38_297
*1062 FILLER_38_3
*1063 FILLER_38_41
*1064 FILLER_38_53
*1065 FILLER_38_65
*1066 FILLER_38_77
*1067 FILLER_38_83
*1068 FILLER_38_85
*1069 FILLER_38_97
*1070 FILLER_39_105
*1071 FILLER_39_111
*1072 FILLER_39_113
*1073 FILLER_39_125
*1074 FILLER_39_137
*1075 FILLER_39_149
*1076 FILLER_39_15
*1077 FILLER_39_161
*1078 FILLER_39_167
*1079 FILLER_39_169
*1080 FILLER_39_181
*1081 FILLER_39_193
*1082 FILLER_39_205
*1083 FILLER_39_217
*1084 FILLER_39_223
*1085 FILLER_39_225
*1086 FILLER_39_237
*1087 FILLER_39_249
*1088 FILLER_39_261
*1089 FILLER_39_27
*1090 FILLER_39_273
*1091 FILLER_39_279
*1092 FILLER_39_281
*1093 FILLER_39_293
*1094 FILLER_39_3
*1095 FILLER_39_39
*1096 FILLER_39_51
*1097 FILLER_39_55
*1098 FILLER_39_57
*1099 FILLER_39_69
*1100 FILLER_39_81
*1101 FILLER_39_93
*1102 FILLER_3_105
*1103 FILLER_3_111
*1104 FILLER_3_113
*1105 FILLER_3_125
*1106 FILLER_3_137
*1107 FILLER_3_149
*1108 FILLER_3_15
*1109 FILLER_3_161
*1110 FILLER_3_167
*1111 FILLER_3_169
*1112 FILLER_3_181
*1113 FILLER_3_193
*1114 FILLER_3_205
*1115 FILLER_3_217
*1116 FILLER_3_223
*1117 FILLER_3_225
*1118 FILLER_3_237
*1119 FILLER_3_249
*1120 FILLER_3_261
*1121 FILLER_3_27
*1122 FILLER_3_273
*1123 FILLER_3_279
*1124 FILLER_3_281
*1125 FILLER_3_293
*1126 FILLER_3_3
*1127 FILLER_3_39
*1128 FILLER_3_51
*1129 FILLER_3_55
*1130 FILLER_3_57
*1131 FILLER_3_69
*1132 FILLER_3_81
*1133 FILLER_3_93
*1134 FILLER_40_109
*1135 FILLER_40_121
*1136 FILLER_40_133
*1137 FILLER_40_139
*1138 FILLER_40_141
*1139 FILLER_40_15
*1140 FILLER_40_153
*1141 FILLER_40_165
*1142 FILLER_40_177
*1143 FILLER_40_189
*1144 FILLER_40_195
*1145 FILLER_40_197
*1146 FILLER_40_209
*1147 FILLER_40_221
*1148 FILLER_40_233
*1149 FILLER_40_245
*1150 FILLER_40_251
*1151 FILLER_40_253
*1152 FILLER_40_265
*1153 FILLER_40_27
*1154 FILLER_40_277
*1155 FILLER_40_289
*1156 FILLER_40_29
*1157 FILLER_40_297
*1158 FILLER_40_3
*1159 FILLER_40_41
*1160 FILLER_40_53
*1161 FILLER_40_65
*1162 FILLER_40_77
*1163 FILLER_40_83
*1164 FILLER_40_85
*1165 FILLER_40_97
*1166 FILLER_41_105
*1167 FILLER_41_111
*1168 FILLER_41_113
*1169 FILLER_41_125
*1170 FILLER_41_137
*1171 FILLER_41_149
*1172 FILLER_41_15
*1173 FILLER_41_161
*1174 FILLER_41_167
*1175 FILLER_41_169
*1176 FILLER_41_181
*1177 FILLER_41_193
*1178 FILLER_41_205
*1179 FILLER_41_217
*1180 FILLER_41_223
*1181 FILLER_41_225
*1182 FILLER_41_237
*1183 FILLER_41_249
*1184 FILLER_41_261
*1185 FILLER_41_27
*1186 FILLER_41_273
*1187 FILLER_41_279
*1188 FILLER_41_281
*1189 FILLER_41_293
*1190 FILLER_41_3
*1191 FILLER_41_39
*1192 FILLER_41_51
*1193 FILLER_41_55
*1194 FILLER_41_57
*1195 FILLER_41_69
*1196 FILLER_41_81
*1197 FILLER_41_93
*1198 FILLER_42_109
*1199 FILLER_42_121
*1200 FILLER_42_133
*1201 FILLER_42_139
*1202 FILLER_42_141
*1203 FILLER_42_15
*1204 FILLER_42_153
*1205 FILLER_42_165
*1206 FILLER_42_177
*1207 FILLER_42_189
*1208 FILLER_42_195
*1209 FILLER_42_197
*1210 FILLER_42_209
*1211 FILLER_42_221
*1212 FILLER_42_233
*1213 FILLER_42_245
*1214 FILLER_42_251
*1215 FILLER_42_253
*1216 FILLER_42_265
*1217 FILLER_42_27
*1218 FILLER_42_277
*1219 FILLER_42_289
*1220 FILLER_42_29
*1221 FILLER_42_297
*1222 FILLER_42_3
*1223 FILLER_42_41
*1224 FILLER_42_53
*1225 FILLER_42_65
*1226 FILLER_42_77
*1227 FILLER_42_83
*1228 FILLER_42_85
*1229 FILLER_42_97
*1230 FILLER_43_105
*1231 FILLER_43_111
*1232 FILLER_43_113
*1233 FILLER_43_125
*1234 FILLER_43_137
*1235 FILLER_43_149
*1236 FILLER_43_15
*1237 FILLER_43_161
*1238 FILLER_43_167
*1239 FILLER_43_169
*1240 FILLER_43_181
*1241 FILLER_43_193
*1242 FILLER_43_205
*1243 FILLER_43_217
*1244 FILLER_43_223
*1245 FILLER_43_225
*1246 FILLER_43_237
*1247 FILLER_43_249
*1248 FILLER_43_261
*1249 FILLER_43_27
*1250 FILLER_43_273
*1251 FILLER_43_279
*1252 FILLER_43_281
*1253 FILLER_43_293
*1254 FILLER_43_3
*1255 FILLER_43_39
*1256 FILLER_43_51
*1257 FILLER_43_55
*1258 FILLER_43_57
*1259 FILLER_43_69
*1260 FILLER_43_81
*1261 FILLER_43_93
*1262 FILLER_44_109
*1263 FILLER_44_121
*1264 FILLER_44_133
*1265 FILLER_44_139
*1266 FILLER_44_141
*1267 FILLER_44_15
*1268 FILLER_44_153
*1269 FILLER_44_165
*1270 FILLER_44_177
*1271 FILLER_44_189
*1272 FILLER_44_195
*1273 FILLER_44_197
*1274 FILLER_44_209
*1275 FILLER_44_221
*1276 FILLER_44_233
*1277 FILLER_44_245
*1278 FILLER_44_251
*1279 FILLER_44_253
*1280 FILLER_44_265
*1281 FILLER_44_27
*1282 FILLER_44_277
*1283 FILLER_44_289
*1284 FILLER_44_29
*1285 FILLER_44_297
*1286 FILLER_44_3
*1287 FILLER_44_41
*1288 FILLER_44_53
*1289 FILLER_44_65
*1290 FILLER_44_77
*1291 FILLER_44_83
*1292 FILLER_44_85
*1293 FILLER_44_97
*1294 FILLER_45_105
*1295 FILLER_45_111
*1296 FILLER_45_113
*1297 FILLER_45_125
*1298 FILLER_45_137
*1299 FILLER_45_149
*1300 FILLER_45_15
*1301 FILLER_45_161
*1302 FILLER_45_167
*1303 FILLER_45_169
*1304 FILLER_45_181
*1305 FILLER_45_193
*1306 FILLER_45_205
*1307 FILLER_45_217
*1308 FILLER_45_223
*1309 FILLER_45_225
*1310 FILLER_45_237
*1311 FILLER_45_249
*1312 FILLER_45_261
*1313 FILLER_45_27
*1314 FILLER_45_273
*1315 FILLER_45_279
*1316 FILLER_45_281
*1317 FILLER_45_293
*1318 FILLER_45_3
*1319 FILLER_45_39
*1320 FILLER_45_51
*1321 FILLER_45_55
*1322 FILLER_45_57
*1323 FILLER_45_69
*1324 FILLER_45_81
*1325 FILLER_45_93
*1326 FILLER_46_109
*1327 FILLER_46_121
*1328 FILLER_46_133
*1329 FILLER_46_139
*1330 FILLER_46_141
*1331 FILLER_46_153
*1332 FILLER_46_165
*1333 FILLER_46_177
*1334 FILLER_46_189
*1335 FILLER_46_195
*1336 FILLER_46_197
*1337 FILLER_46_20
*1338 FILLER_46_209
*1339 FILLER_46_221
*1340 FILLER_46_233
*1341 FILLER_46_245
*1342 FILLER_46_251
*1343 FILLER_46_253
*1344 FILLER_46_265
*1345 FILLER_46_277
*1346 FILLER_46_289
*1347 FILLER_46_29
*1348 FILLER_46_297
*1349 FILLER_46_3
*1350 FILLER_46_41
*1351 FILLER_46_53
*1352 FILLER_46_65
*1353 FILLER_46_77
*1354 FILLER_46_8
*1355 FILLER_46_83
*1356 FILLER_46_85
*1357 FILLER_46_97
*1358 FILLER_47_105
*1359 FILLER_47_111
*1360 FILLER_47_113
*1361 FILLER_47_125
*1362 FILLER_47_137
*1363 FILLER_47_149
*1364 FILLER_47_15
*1365 FILLER_47_161
*1366 FILLER_47_167
*1367 FILLER_47_169
*1368 FILLER_47_181
*1369 FILLER_47_193
*1370 FILLER_47_205
*1371 FILLER_47_217
*1372 FILLER_47_223
*1373 FILLER_47_225
*1374 FILLER_47_237
*1375 FILLER_47_249
*1376 FILLER_47_261
*1377 FILLER_47_27
*1378 FILLER_47_273
*1379 FILLER_47_279
*1380 FILLER_47_281
*1381 FILLER_47_293
*1382 FILLER_47_3
*1383 FILLER_47_39
*1384 FILLER_47_51
*1385 FILLER_47_55
*1386 FILLER_47_57
*1387 FILLER_47_69
*1388 FILLER_47_81
*1389 FILLER_47_93
*1390 FILLER_48_109
*1391 FILLER_48_121
*1392 FILLER_48_133
*1393 FILLER_48_139
*1394 FILLER_48_141
*1395 FILLER_48_15
*1396 FILLER_48_153
*1397 FILLER_48_165
*1398 FILLER_48_177
*1399 FILLER_48_189
*1400 FILLER_48_195
*1401 FILLER_48_197
*1402 FILLER_48_209
*1403 FILLER_48_221
*1404 FILLER_48_233
*1405 FILLER_48_245
*1406 FILLER_48_251
*1407 FILLER_48_253
*1408 FILLER_48_265
*1409 FILLER_48_27
*1410 FILLER_48_277
*1411 FILLER_48_289
*1412 FILLER_48_29
*1413 FILLER_48_297
*1414 FILLER_48_3
*1415 FILLER_48_41
*1416 FILLER_48_53
*1417 FILLER_48_65
*1418 FILLER_48_77
*1419 FILLER_48_83
*1420 FILLER_48_85
*1421 FILLER_48_97
*1422 FILLER_49_105
*1423 FILLER_49_111
*1424 FILLER_49_113
*1425 FILLER_49_125
*1426 FILLER_49_137
*1427 FILLER_49_149
*1428 FILLER_49_15
*1429 FILLER_49_161
*1430 FILLER_49_167
*1431 FILLER_49_169
*1432 FILLER_49_181
*1433 FILLER_49_193
*1434 FILLER_49_205
*1435 FILLER_49_217
*1436 FILLER_49_223
*1437 FILLER_49_225
*1438 FILLER_49_237
*1439 FILLER_49_249
*1440 FILLER_49_261
*1441 FILLER_49_27
*1442 FILLER_49_273
*1443 FILLER_49_279
*1444 FILLER_49_281
*1445 FILLER_49_293
*1446 FILLER_49_3
*1447 FILLER_49_39
*1448 FILLER_49_51
*1449 FILLER_49_55
*1450 FILLER_49_57
*1451 FILLER_49_69
*1452 FILLER_49_81
*1453 FILLER_49_93
*1454 FILLER_4_109
*1455 FILLER_4_121
*1456 FILLER_4_133
*1457 FILLER_4_139
*1458 FILLER_4_141
*1459 FILLER_4_15
*1460 FILLER_4_153
*1461 FILLER_4_165
*1462 FILLER_4_177
*1463 FILLER_4_189
*1464 FILLER_4_195
*1465 FILLER_4_197
*1466 FILLER_4_209
*1467 FILLER_4_221
*1468 FILLER_4_233
*1469 FILLER_4_245
*1470 FILLER_4_251
*1471 FILLER_4_253
*1472 FILLER_4_265
*1473 FILLER_4_27
*1474 FILLER_4_277
*1475 FILLER_4_289
*1476 FILLER_4_29
*1477 FILLER_4_297
*1478 FILLER_4_3
*1479 FILLER_4_41
*1480 FILLER_4_53
*1481 FILLER_4_65
*1482 FILLER_4_77
*1483 FILLER_4_83
*1484 FILLER_4_85
*1485 FILLER_4_97
*1486 FILLER_50_109
*1487 FILLER_50_121
*1488 FILLER_50_133
*1489 FILLER_50_139
*1490 FILLER_50_141
*1491 FILLER_50_153
*1492 FILLER_50_165
*1493 FILLER_50_177
*1494 FILLER_50_189
*1495 FILLER_50_195
*1496 FILLER_50_197
*1497 FILLER_50_20
*1498 FILLER_50_209
*1499 FILLER_50_221
*1500 FILLER_50_233
*1501 FILLER_50_245
*1502 FILLER_50_251
*1503 FILLER_50_253
*1504 FILLER_50_265
*1505 FILLER_50_277
*1506 FILLER_50_289
*1507 FILLER_50_29
*1508 FILLER_50_297
*1509 FILLER_50_3
*1510 FILLER_50_41
*1511 FILLER_50_53
*1512 FILLER_50_65
*1513 FILLER_50_77
*1514 FILLER_50_8
*1515 FILLER_50_83
*1516 FILLER_50_85
*1517 FILLER_50_97
*1518 FILLER_51_105
*1519 FILLER_51_111
*1520 FILLER_51_113
*1521 FILLER_51_125
*1522 FILLER_51_137
*1523 FILLER_51_149
*1524 FILLER_51_15
*1525 FILLER_51_161
*1526 FILLER_51_167
*1527 FILLER_51_169
*1528 FILLER_51_181
*1529 FILLER_51_193
*1530 FILLER_51_205
*1531 FILLER_51_217
*1532 FILLER_51_223
*1533 FILLER_51_225
*1534 FILLER_51_237
*1535 FILLER_51_249
*1536 FILLER_51_261
*1537 FILLER_51_27
*1538 FILLER_51_273
*1539 FILLER_51_279
*1540 FILLER_51_281
*1541 FILLER_51_293
*1542 FILLER_51_3
*1543 FILLER_51_39
*1544 FILLER_51_51
*1545 FILLER_51_55
*1546 FILLER_51_57
*1547 FILLER_51_69
*1548 FILLER_51_81
*1549 FILLER_51_93
*1550 FILLER_52_109
*1551 FILLER_52_121
*1552 FILLER_52_133
*1553 FILLER_52_139
*1554 FILLER_52_141
*1555 FILLER_52_15
*1556 FILLER_52_153
*1557 FILLER_52_165
*1558 FILLER_52_177
*1559 FILLER_52_189
*1560 FILLER_52_195
*1561 FILLER_52_197
*1562 FILLER_52_209
*1563 FILLER_52_221
*1564 FILLER_52_233
*1565 FILLER_52_245
*1566 FILLER_52_251
*1567 FILLER_52_253
*1568 FILLER_52_265
*1569 FILLER_52_27
*1570 FILLER_52_277
*1571 FILLER_52_289
*1572 FILLER_52_29
*1573 FILLER_52_297
*1574 FILLER_52_3
*1575 FILLER_52_41
*1576 FILLER_52_53
*1577 FILLER_52_65
*1578 FILLER_52_77
*1579 FILLER_52_83
*1580 FILLER_52_85
*1581 FILLER_52_97
*1582 FILLER_53_105
*1583 FILLER_53_111
*1584 FILLER_53_113
*1585 FILLER_53_125
*1586 FILLER_53_137
*1587 FILLER_53_149
*1588 FILLER_53_15
*1589 FILLER_53_161
*1590 FILLER_53_167
*1591 FILLER_53_169