*SPEF "ieee 1481-1999"
*DESIGN "user_module_341620484740219475"
*DATE "11:11:11 Fri 11 11, 1111"
*VENDOR "OpenRCX"
*PROGRAM "Parallel Extraction"
*VERSION "1.0"
*DESIGN_FLOW "NAME_SCOPE LOCAL" "PIN_CAP NONE"
*DIVIDER /
*DELIMITER :
*BUS_DELIMITER []
*T_UNIT 1 NS
*C_UNIT 1 PF
*R_UNIT 1 OHM
*L_UNIT 1 HENRY

*NAME_MAP
*1 io_in[0]
*2 io_in[1]
*3 io_in[2]
*4 io_in[3]
*5 io_in[4]
*6 io_in[5]
*7 io_in[6]
*8 io_in[7]
*9 io_out[0]
*10 io_out[1]
*11 io_out[2]
*12 io_out[3]
*13 io_out[4]
*14 io_out[5]
*15 io_out[6]
*16 io_out[7]
*19 _000_
*20 _001_
*21 _002_
*22 _003_
*23 _004_
*24 _005_
*25 _006_
*26 _007_
*27 _008_
*28 _009_
*29 _010_
*30 _011_
*31 _012_
*32 _013_
*33 _014_
*34 _015_
*35 _016_
*36 _017_
*37 _018_
*38 _019_
*39 _020_
*40 _021_
*41 _022_
*42 _023_
*43 _024_
*44 _025_
*45 _026_
*46 _027_
*47 _028_
*48 _029_
*49 _030_
*50 _031_
*51 _032_
*52 _033_
*53 _034_
*54 _035_
*55 _036_
*56 _037_
*57 _038_
*58 _039_
*59 _040_
*60 _041_
*61 _042_
*62 _043_
*63 _044_
*64 _045_
*65 _046_
*66 _047_
*67 _048_
*68 _049_
*69 _050_
*70 _051_
*71 _052_
*72 _053_
*73 _054_
*74 _055_
*75 _056_
*76 _057_
*77 _058_
*78 _059_
*79 _060_
*80 _061_
*81 _062_
*82 _063_
*83 _064_
*84 _065_
*85 _066_
*86 _067_
*87 _068_
*88 _069_
*89 _070_
*90 _071_
*91 _072_
*92 _073_
*93 _074_
*94 _075_
*95 _076_
*96 _077_
*97 _078_
*98 _079_
*99 _080_
*100 _081_
*101 _082_
*102 _083_
*103 _084_
*104 _085_
*105 _086_
*106 _087_
*107 _088_
*108 _089_
*109 _090_
*110 _091_
*111 _092_
*112 _093_
*113 clknet_0_io_in[0]
*114 clknet_3_0__leaf_io_in[0]
*115 clknet_3_1__leaf_io_in[0]
*116 clknet_3_2__leaf_io_in[0]
*117 clknet_3_3__leaf_io_in[0]
*118 clknet_3_4__leaf_io_in[0]
*119 clknet_3_5__leaf_io_in[0]
*120 clknet_3_6__leaf_io_in[0]
*121 clknet_3_7__leaf_io_in[0]
*122 flipflop1\.d
*123 flipflop1\.q
*124 flipflop10\.d
*125 flipflop10\.q
*126 flipflop11\.d
*127 flipflop11\.q
*128 flipflop12\.d
*129 flipflop12\.q
*130 flipflop13\.d
*131 flipflop13\.q
*132 flipflop14\.d
*133 flipflop14\.q
*134 flipflop15\.q
*135 flipflop16\.q
*136 flipflop17\.q
*137 flipflop18\.d
*138 flipflop18\.q
*139 flipflop19\.d
*140 flipflop19\.q
*141 flipflop2\.q
*142 flipflop20\.d
*143 flipflop20\.q
*144 flipflop21\.q
*145 flipflop22\.q
*146 flipflop23\.q
*147 flipflop24\.q
*148 flipflop25\.q
*149 flipflop26\.q
*150 flipflop27\.q
*151 flipflop28\.q
*152 flipflop29\.q
*153 flipflop30\.q
*154 flipflop31\.q
*155 flipflop32\.q
*156 flipflop33\.q
*157 flipflop34\.q
*158 flipflop35\.q
*159 flipflop36\.q
*160 flipflop37\.q
*161 flipflop38\.q
*162 flipflop39\.q
*163 flipflop4\.d
*164 flipflop40\.q
*165 flipflop41\.q
*166 flipflop42\.q
*167 flipflop43\.q
*168 flipflop44\.q
*169 flipflop45\.q
*170 flipflop46\.q
*171 flipflop47\.q
*172 flipflop48\.q
*173 flipflop49\.q
*174 flipflop5\.d
*175 flipflop50\.q
*176 flipflop51\.q
*177 flipflop52\.q
*178 flipflop53\.q
*179 flipflop54\.q
*180 flipflop55\.q
*181 flipflop56\.q
*182 flipflop57\.q
*183 flipflop58\.q
*184 flipflop59\.q
*185 flipflop60\.q
*186 flipflop61\.q
*187 flipflop65\.q
*188 flipflop66\.d
*189 flipflop66\.q
*190 flipflop68\.d
*191 flipflop68\.q
*192 mux15\.out
*193 mux22\.out
*194 mux29\.out
*195 mux36\.out
*196 mux43\.out
*197 mux50\.out
*198 mux57\.out
*199 mux8\.out
*200 net1
*201 net10
*202 net11
*203 net12
*204 net13
*205 net14
*206 net15
*207 net16
*208 net17
*209 net18
*210 net19
*211 net2
*212 net20
*213 net21
*214 net22
*215 net23
*216 net24
*217 net25
*218 net26
*219 net27
*220 net28
*221 net29
*222 net3
*223 net30
*224 net31
*225 net32
*226 net33
*227 net34
*228 net35
*229 net36
*230 net4
*231 net5
*232 net6
*233 net7
*234 net8
*235 net9
*236 FILLER_0_103
*237 FILLER_0_111
*238 FILLER_0_113
*239 FILLER_0_131
*240 FILLER_0_139
*241 FILLER_0_141
*242 FILLER_0_153
*243 FILLER_0_165
*244 FILLER_0_169
*245 FILLER_0_181
*246 FILLER_0_193
*247 FILLER_0_197
*248 FILLER_0_209
*249 FILLER_0_221
*250 FILLER_0_225
*251 FILLER_0_237
*252 FILLER_0_24
*253 FILLER_0_249
*254 FILLER_0_253
*255 FILLER_0_265
*256 FILLER_0_277
*257 FILLER_0_281
*258 FILLER_0_29
*259 FILLER_0_293
*260 FILLER_0_3
*261 FILLER_0_37
*262 FILLER_0_54
*263 FILLER_0_57
*264 FILLER_0_65
*265 FILLER_0_7
*266 FILLER_0_82
*267 FILLER_0_85
*268 FILLER_10_102
*269 FILLER_10_112
*270 FILLER_10_121
*271 FILLER_10_133
*272 FILLER_10_139
*273 FILLER_10_141
*274 FILLER_10_153
*275 FILLER_10_165
*276 FILLER_10_177
*277 FILLER_10_189
*278 FILLER_10_195
*279 FILLER_10_197
*280 FILLER_10_209
*281 FILLER_10_21
*282 FILLER_10_221
*283 FILLER_10_233
*284 FILLER_10_245
*285 FILLER_10_251
*286 FILLER_10_253
*287 FILLER_10_265
*288 FILLER_10_27
*289 FILLER_10_277
*290 FILLER_10_289
*291 FILLER_10_29
*292 FILLER_10_297
*293 FILLER_10_3
*294 FILLER_10_33
*295 FILLER_10_50
*296 FILLER_10_74
*297 FILLER_10_82
*298 FILLER_10_85
*299 FILLER_10_93
*300 FILLER_11_102
*301 FILLER_11_110
*302 FILLER_11_113
*303 FILLER_11_125
*304 FILLER_11_137
*305 FILLER_11_15
*306 FILLER_11_154
*307 FILLER_11_166
*308 FILLER_11_169
*309 FILLER_11_181
*310 FILLER_11_193
*311 FILLER_11_205
*312 FILLER_11_217
*313 FILLER_11_223
*314 FILLER_11_225
*315 FILLER_11_237
*316 FILLER_11_249
*317 FILLER_11_261
*318 FILLER_11_273
*319 FILLER_11_279
*320 FILLER_11_281
*321 FILLER_11_293
*322 FILLER_11_3
*323 FILLER_11_36
*324 FILLER_11_48
*325 FILLER_11_57
*326 FILLER_11_65
*327 FILLER_11_82
*328 FILLER_12_104
*329 FILLER_12_116
*330 FILLER_12_128
*331 FILLER_12_141
*332 FILLER_12_153
*333 FILLER_12_165
*334 FILLER_12_177
*335 FILLER_12_189
*336 FILLER_12_195
*337 FILLER_12_197
*338 FILLER_12_209
*339 FILLER_12_221
*340 FILLER_12_233
*341 FILLER_12_245
*342 FILLER_12_251
*343 FILLER_12_253
*344 FILLER_12_26
*345 FILLER_12_265
*346 FILLER_12_277
*347 FILLER_12_289
*348 FILLER_12_29
*349 FILLER_12_297
*350 FILLER_12_3
*351 FILLER_12_41
*352 FILLER_12_65
*353 FILLER_12_77
*354 FILLER_12_83
*355 FILLER_12_85
*356 FILLER_12_9
*357 FILLER_12_95
*358 FILLER_13_110
*359 FILLER_13_113
*360 FILLER_13_122
*361 FILLER_13_134
*362 FILLER_13_146
*363 FILLER_13_158
*364 FILLER_13_166
*365 FILLER_13_169
*366 FILLER_13_181
*367 FILLER_13_193
*368 FILLER_13_205
*369 FILLER_13_217
*370 FILLER_13_223
*371 FILLER_13_225
*372 FILLER_13_237
*373 FILLER_13_249
*374 FILLER_13_261
*375 FILLER_13_273
*376 FILLER_13_279
*377 FILLER_13_28
*378 FILLER_13_281
*379 FILLER_13_293
*380 FILLER_13_3
*381 FILLER_13_48
*382 FILLER_13_57
*383 FILLER_13_69
*384 FILLER_13_8
*385 FILLER_13_86
*386 FILLER_13_98
*387 FILLER_14_103
*388 FILLER_14_120
*389 FILLER_14_128
*390 FILLER_14_136
*391 FILLER_14_141
*392 FILLER_14_153
*393 FILLER_14_165
*394 FILLER_14_177
*395 FILLER_14_189
*396 FILLER_14_195
*397 FILLER_14_197
*398 FILLER_14_209
*399 FILLER_14_221
*400 FILLER_14_233
*401 FILLER_14_245
*402 FILLER_14_251
*403 FILLER_14_253
*404 FILLER_14_26
*405 FILLER_14_265
*406 FILLER_14_277
*407 FILLER_14_289
*408 FILLER_14_29
*409 FILLER_14_297
*410 FILLER_14_3
*411 FILLER_14_41
*412 FILLER_14_61
*413 FILLER_14_81
*414 FILLER_14_85
*415 FILLER_14_9
*416 FILLER_15_103
*417 FILLER_15_111
*418 FILLER_15_113
*419 FILLER_15_122
*420 FILLER_15_134
*421 FILLER_15_146
*422 FILLER_15_158
*423 FILLER_15_166
*424 FILLER_15_169
*425 FILLER_15_181
*426 FILLER_15_193
*427 FILLER_15_205
*428 FILLER_15_217
*429 FILLER_15_223
*430 FILLER_15_225
*431 FILLER_15_237
*432 FILLER_15_249
*433 FILLER_15_26
*434 FILLER_15_261
*435 FILLER_15_273
*436 FILLER_15_279
*437 FILLER_15_281
*438 FILLER_15_293
*439 FILLER_15_3
*440 FILLER_15_32
*441 FILLER_15_49
*442 FILLER_15_55
*443 FILLER_15_57
*444 FILLER_15_65
*445 FILLER_15_82
*446 FILLER_15_86
*447 FILLER_15_9
*448 FILLER_16_103
*449 FILLER_16_111
*450 FILLER_16_119
*451 FILLER_16_131
*452 FILLER_16_139
*453 FILLER_16_141
*454 FILLER_16_153
*455 FILLER_16_165
*456 FILLER_16_177
*457 FILLER_16_189
*458 FILLER_16_195
*459 FILLER_16_197
*460 FILLER_16_209
*461 FILLER_16_221
*462 FILLER_16_233
*463 FILLER_16_245
*464 FILLER_16_251
*465 FILLER_16_253
*466 FILLER_16_26
*467 FILLER_16_265
*468 FILLER_16_277
*469 FILLER_16_289
*470 FILLER_16_29
*471 FILLER_16_297
*472 FILLER_16_3
*473 FILLER_16_41
*474 FILLER_16_45
*475 FILLER_16_62
*476 FILLER_16_82
*477 FILLER_16_85
*478 FILLER_16_9
*479 FILLER_17_105
*480 FILLER_17_111
*481 FILLER_17_113
*482 FILLER_17_125
*483 FILLER_17_137
*484 FILLER_17_149
*485 FILLER_17_161
*486 FILLER_17_167
*487 FILLER_17_169
*488 FILLER_17_181
*489 FILLER_17_193
*490 FILLER_17_205
*491 FILLER_17_217
*492 FILLER_17_223
*493 FILLER_17_225
*494 FILLER_17_237
*495 FILLER_17_249
*496 FILLER_17_261
*497 FILLER_17_273
*498 FILLER_17_279
*499 FILLER_17_281
*500 FILLER_17_293
*501 FILLER_17_3
*502 FILLER_17_36
*503 FILLER_17_44
*504 FILLER_17_54
*505 FILLER_17_57
*506 FILLER_17_69
*507 FILLER_17_8
*508 FILLER_17_93
*509 FILLER_18_107
*510 FILLER_18_119
*511 FILLER_18_131
*512 FILLER_18_139
*513 FILLER_18_141
*514 FILLER_18_153
*515 FILLER_18_165
*516 FILLER_18_177
*517 FILLER_18_189
*518 FILLER_18_195
*519 FILLER_18_197
*520 FILLER_18_209
*521 FILLER_18_221
*522 FILLER_18_233
*523 FILLER_18_245
*524 FILLER_18_251
*525 FILLER_18_253
*526 FILLER_18_26
*527 FILLER_18_265
*528 FILLER_18_277
*529 FILLER_18_289
*530 FILLER_18_29
*531 FILLER_18_297
*532 FILLER_18_3
*533 FILLER_18_47
*534 FILLER_18_53
*535 FILLER_18_62
*536 FILLER_18_82
*537 FILLER_18_85
*538 FILLER_18_9
*539 FILLER_18_95
*540 FILLER_19_105
*541 FILLER_19_111
*542 FILLER_19_113
*543 FILLER_19_119
*544 FILLER_19_131
*545 FILLER_19_138
*546 FILLER_19_147
*547 FILLER_19_159
*548 FILLER_19_167
*549 FILLER_19_169
*550 FILLER_19_181
*551 FILLER_19_193
*552 FILLER_19_205
*553 FILLER_19_21
*554 FILLER_19_217
*555 FILLER_19_223
*556 FILLER_19_225
*557 FILLER_19_237
*558 FILLER_19_249
*559 FILLER_19_25
*560 FILLER_19_261
*561 FILLER_19_273
*562 FILLER_19_279
*563 FILLER_19_281
*564 FILLER_19_293
*565 FILLER_19_3
*566 FILLER_19_42
*567 FILLER_19_51
*568 FILLER_19_55
*569 FILLER_19_57
*570 FILLER_19_81
*571 FILLER_19_93
*572 FILLER_1_109
*573 FILLER_1_113
*574 FILLER_1_131
*575 FILLER_1_15
*576 FILLER_1_151
*577 FILLER_1_163
*578 FILLER_1_167
*579 FILLER_1_169
*580 FILLER_1_181
*581 FILLER_1_193
*582 FILLER_1_205
*583 FILLER_1_217
*584 FILLER_1_223
*585 FILLER_1_225
*586 FILLER_1_237
*587 FILLER_1_249
*588 FILLER_1_261
*589 FILLER_1_273
*590 FILLER_1_279
*591 FILLER_1_281
*592 FILLER_1_293
*593 FILLER_1_3
*594 FILLER_1_36
*595 FILLER_1_48
*596 FILLER_1_57
*597 FILLER_1_69
*598 FILLER_1_93
*599 FILLER_20_109
*600 FILLER_20_120
*601 FILLER_20_132
*602 FILLER_20_141
*603 FILLER_20_153
*604 FILLER_20_165
*605 FILLER_20_177
*606 FILLER_20_189
*607 FILLER_20_195
*608 FILLER_20_197
*609 FILLER_20_209
*610 FILLER_20_21
*611 FILLER_20_221
*612 FILLER_20_233
*613 FILLER_20_245
*614 FILLER_20_251
*615 FILLER_20_253
*616 FILLER_20_265
*617 FILLER_20_27
*618 FILLER_20_277
*619 FILLER_20_289
*620 FILLER_20_29
*621 FILLER_20_297
*622 FILLER_20_3
*623 FILLER_20_39
*624 FILLER_20_50
*625 FILLER_20_62
*626 FILLER_20_80
*627 FILLER_20_85
*628 FILLER_20_97
*629 FILLER_21_111
*630 FILLER_21_113
*631 FILLER_21_125
*632 FILLER_21_137
*633 FILLER_21_149
*634 FILLER_21_161
*635 FILLER_21_167
*636 FILLER_21_169
*637 FILLER_21_17
*638 FILLER_21_181
*639 FILLER_21_193
*640 FILLER_21_205
*641 FILLER_21_217
*642 FILLER_21_223
*643 FILLER_21_225
*644 FILLER_21_237
*645 FILLER_21_249
*646 FILLER_21_261
*647 FILLER_21_273
*648 FILLER_21_279
*649 FILLER_21_281
*650 FILLER_21_29
*651 FILLER_21_293
*652 FILLER_21_3
*653 FILLER_21_33
*654 FILLER_21_41
*655 FILLER_21_52
*656 FILLER_21_57
*657 FILLER_21_64
*658 FILLER_21_70
*659 FILLER_21_75
*660 FILLER_21_87
*661 FILLER_21_99
*662 FILLER_22_111
*663 FILLER_22_123
*664 FILLER_22_135
*665 FILLER_22_139
*666 FILLER_22_141
*667 FILLER_22_149
*668 FILLER_22_161
*669 FILLER_22_173
*670 FILLER_22_185
*671 FILLER_22_193
*672 FILLER_22_197
*673 FILLER_22_20
*674 FILLER_22_209
*675 FILLER_22_221
*676 FILLER_22_233
*677 FILLER_22_245
*678 FILLER_22_251
*679 FILLER_22_253
*680 FILLER_22_265
*681 FILLER_22_277
*682 FILLER_22_289
*683 FILLER_22_29
*684 FILLER_22_297
*685 FILLER_22_3
*686 FILLER_22_36
*687 FILLER_22_40
*688 FILLER_22_48
*689 FILLER_22_57
*690 FILLER_22_66
*691 FILLER_22_74
*692 FILLER_22_79
*693 FILLER_22_83
*694 FILLER_22_85
*695 FILLER_22_9
*696 FILLER_22_98
*697 FILLER_23_10
*698 FILLER_23_103
*699 FILLER_23_111
*700 FILLER_23_113
*701 FILLER_23_122
*702 FILLER_23_132
*703 FILLER_23_144
*704 FILLER_23_156
*705 FILLER_23_169
*706 FILLER_23_181
*707 FILLER_23_193
*708 FILLER_23_205
*709 FILLER_23_217
*710 FILLER_23_223
*711 FILLER_23_225
*712 FILLER_23_237
*713 FILLER_23_249
*714 FILLER_23_261
*715 FILLER_23_27
*716 FILLER_23_273
*717 FILLER_23_279
*718 FILLER_23_281
*719 FILLER_23_293
*720 FILLER_23_3
*721 FILLER_23_35
*722 FILLER_23_43
*723 FILLER_23_54
*724 FILLER_23_57
*725 FILLER_23_66
*726 FILLER_23_77
*727 FILLER_23_85
*728 FILLER_23_91
*729 FILLER_24_105
*730 FILLER_24_123
*731 FILLER_24_135
*732 FILLER_24_139
*733 FILLER_24_141
*734 FILLER_24_153
*735 FILLER_24_165
*736 FILLER_24_177
*737 FILLER_24_18
*738 FILLER_24_189
*739 FILLER_24_195
*740 FILLER_24_197
*741 FILLER_24_209
*742 FILLER_24_221
*743 FILLER_24_233
*744 FILLER_24_245
*745 FILLER_24_251
*746 FILLER_24_253
*747 FILLER_24_26
*748 FILLER_24_265
*749 FILLER_24_277
*750 FILLER_24_289
*751 FILLER_24_29
*752 FILLER_24_297
*753 FILLER_24_3
*754 FILLER_24_34
*755 FILLER_24_45
*756 FILLER_24_53
*757 FILLER_24_64
*758 FILLER_24_68
*759 FILLER_24_76
*760 FILLER_24_85
*761 FILLER_24_97
*762 FILLER_25_103
*763 FILLER_25_11
*764 FILLER_25_111
*765 FILLER_25_113
*766 FILLER_25_121
*767 FILLER_25_129
*768 FILLER_25_141
*769 FILLER_25_153
*770 FILLER_25_165
*771 FILLER_25_169
*772 FILLER_25_181
*773 FILLER_25_19
*774 FILLER_25_193
*775 FILLER_25_205
*776 FILLER_25_217
*777 FILLER_25_223
*778 FILLER_25_225
*779 FILLER_25_237
*780 FILLER_25_249
*781 FILLER_25_261
*782 FILLER_25_27
*783 FILLER_25_273
*784 FILLER_25_279
*785 FILLER_25_281
*786 FILLER_25_293
*787 FILLER_25_3
*788 FILLER_25_36
*789 FILLER_25_48
*790 FILLER_25_57
*791 FILLER_25_72
*792 FILLER_25_84
*793 FILLER_25_96
*794 FILLER_26_109
*795 FILLER_26_11
*796 FILLER_26_121
*797 FILLER_26_133
*798 FILLER_26_139
*799 FILLER_26_141
*800 FILLER_26_153
*801 FILLER_26_165
*802 FILLER_26_177
*803 FILLER_26_18
*804 FILLER_26_189
*805 FILLER_26_195
*806 FILLER_26_197
*807 FILLER_26_209
*808 FILLER_26_221
*809 FILLER_26_233
*810 FILLER_26_245
*811 FILLER_26_251
*812 FILLER_26_253
*813 FILLER_26_26
*814 FILLER_26_265
*815 FILLER_26_277
*816 FILLER_26_289
*817 FILLER_26_29
*818 FILLER_26_297
*819 FILLER_26_3
*820 FILLER_26_36
*821 FILLER_26_48
*822 FILLER_26_65
*823 FILLER_26_77
*824 FILLER_26_83
*825 FILLER_26_85
*826 FILLER_26_97
*827 FILLER_27_103
*828 FILLER_27_111
*829 FILLER_27_113
*830 FILLER_27_12
*831 FILLER_27_123
*832 FILLER_27_135
*833 FILLER_27_147
*834 FILLER_27_159
*835 FILLER_27_167
*836 FILLER_27_169
*837 FILLER_27_18
*838 FILLER_27_181
*839 FILLER_27_193
*840 FILLER_27_205
*841 FILLER_27_217
*842 FILLER_27_223
*843 FILLER_27_225
*844 FILLER_27_237
*845 FILLER_27_249
*846 FILLER_27_261
*847 FILLER_27_27
*848 FILLER_27_273
*849 FILLER_27_279
*850 FILLER_27_281
*851 FILLER_27_293
*852 FILLER_27_3
*853 FILLER_27_43
*854 FILLER_27_55
*855 FILLER_27_57
*856 FILLER_27_69
*857 FILLER_27_8
*858 FILLER_27_81
*859 FILLER_27_93
*860 FILLER_28_102
*861 FILLER_28_11
*862 FILLER_28_114
*863 FILLER_28_126
*864 FILLER_28_138
*865 FILLER_28_141
*866 FILLER_28_153
*867 FILLER_28_165
*868 FILLER_28_17
*869 FILLER_28_177
*870 FILLER_28_189
*871 FILLER_28_195
*872 FILLER_28_197
*873 FILLER_28_209
*874 FILLER_28_221
*875 FILLER_28_233
*876 FILLER_28_245
*877 FILLER_28_251
*878 FILLER_28_253
*879 FILLER_28_26
*880 FILLER_28_265
*881 FILLER_28_277
*882 FILLER_28_289
*883 FILLER_28_29
*884 FILLER_28_297
*885 FILLER_28_3
*886 FILLER_28_38
*887 FILLER_28_46
*888 FILLER_28_56
*889 FILLER_28_65
*890 FILLER_28_71
*891 FILLER_28_77
*892 FILLER_28_83
*893 FILLER_28_85
*894 FILLER_28_94
*895 FILLER_29_110
*896 FILLER_29_113
*897 FILLER_29_125
*898 FILLER_29_137
*899 FILLER_29_149
*900 FILLER_29_161
*901 FILLER_29_167
*902 FILLER_29_169
*903 FILLER_29_181
*904 FILLER_29_193
*905 FILLER_29_205
*906 FILLER_29_217
*907 FILLER_29_22
*908 FILLER_29_223
*909 FILLER_29_225
*910 FILLER_29_237
*911 FILLER_29_249
*912 FILLER_29_261
*913 FILLER_29_273
*914 FILLER_29_279
*915 FILLER_29_281
*916 FILLER_29_293
*917 FILLER_29_3
*918 FILLER_29_31
*919 FILLER_29_43
*920 FILLER_29_54
*921 FILLER_29_57
*922 FILLER_29_61
*923 FILLER_29_69
*924 FILLER_29_77
*925 FILLER_29_87
*926 FILLER_29_98
*927 FILLER_2_103
*928 FILLER_2_123
*929 FILLER_2_135
*930 FILLER_2_139
*931 FILLER_2_141
*932 FILLER_2_153
*933 FILLER_2_165
*934 FILLER_2_177
*935 FILLER_2_189
*936 FILLER_2_195
*937 FILLER_2_197
*938 FILLER_2_209
*939 FILLER_2_221
*940 FILLER_2_233
*941 FILLER_2_245
*942 FILLER_2_251
*943 FILLER_2_253
*944 FILLER_2_26
*945 FILLER_2_265
*946 FILLER_2_277
*947 FILLER_2_289
*948 FILLER_2_29
*949 FILLER_2_297
*950 FILLER_2_3
*951 FILLER_2_39
*952 FILLER_2_45
*953 FILLER_2_62
*954 FILLER_2_82
*955 FILLER_2_85
*956 FILLER_2_9
*957 FILLER_30_111
*958 FILLER_30_123
*959 FILLER_30_135
*960 FILLER_30_139
*961 FILLER_30_141
*962 FILLER_30_153
*963 FILLER_30_165
*964 FILLER_30_17
*965 FILLER_30_177
*966 FILLER_30_189
*967 FILLER_30_195
*968 FILLER_30_197
*969 FILLER_30_209
*970 FILLER_30_221
*971 FILLER_30_233
*972 FILLER_30_245
*973 FILLER_30_251
*974 FILLER_30_253
*975 FILLER_30_26
*976 FILLER_30_265
*977 FILLER_30_277
*978 FILLER_30_289
*979 FILLER_30_29
*980 FILLER_30_297
*981 FILLER_30_3
*982 FILLER_30_38
*983 FILLER_30_49
*984 FILLER_30_55
*985 FILLER_30_61
*986 FILLER_30_77
*987 FILLER_30_83
*988 FILLER_30_85
*989 FILLER_30_9
*990 FILLER_30_91
*991 FILLER_30_99
*992 FILLER_31_105
*993 FILLER_31_111
*994 FILLER_31_113
*995 FILLER_31_125
*996 FILLER_31_137
*997 FILLER_31_149
*998 FILLER_31_15
*999 FILLER_31_161
*1000 FILLER_31_167
*1001 FILLER_31_169
*1002 FILLER_31_181
*1003 FILLER_31_193
*1004 FILLER_31_205
*1005 FILLER_31_217
*1006 FILLER_31_223
*1007 FILLER_31_225
*1008 FILLER_31_237
*1009 FILLER_31_249
*1010 FILLER_31_261
*1011 FILLER_31_27
*1012 FILLER_31_273
*1013 FILLER_31_279
*1014 FILLER_31_281
*1015 FILLER_31_293
*1016 FILLER_31_3
*1017 FILLER_31_39
*1018 FILLER_31_45
*1019 FILLER_31_53
*1020 FILLER_31_57
*1021 FILLER_31_69
*1022 FILLER_31_81
*1023 FILLER_31_93
*1024 FILLER_32_101
*1025 FILLER_32_107
*1026 FILLER_32_119
*1027 FILLER_32_131
*1028 FILLER_32_139
*1029 FILLER_32_141
*1030 FILLER_32_15
*1031 FILLER_32_153
*1032 FILLER_32_165
*1033 FILLER_32_177
*1034 FILLER_32_189
*1035 FILLER_32_195
*1036 FILLER_32_197
*1037 FILLER_32_209
*1038 FILLER_32_221
*1039 FILLER_32_233
*1040 FILLER_32_245
*1041 FILLER_32_251
*1042 FILLER_32_253
*1043 FILLER_32_265
*1044 FILLER_32_27
*1045 FILLER_32_277
*1046 FILLER_32_289
*1047 FILLER_32_29
*1048 FILLER_32_297
*1049 FILLER_32_3
*1050 FILLER_32_41
*1051 FILLER_32_53
*1052 FILLER_32_65
*1053 FILLER_32_77
*1054 FILLER_32_83
*1055 FILLER_32_85
*1056 FILLER_32_97
*1057 FILLER_33_105
*1058 FILLER_33_111
*1059 FILLER_33_113
*1060 FILLER_33_120
*1061 FILLER_33_132
*1062 FILLER_33_144
*1063 FILLER_33_15
*1064 FILLER_33_156
*1065 FILLER_33_169
*1066 FILLER_33_181
*1067 FILLER_33_193
*1068 FILLER_33_205
*1069 FILLER_33_217
*1070 FILLER_33_223
*1071 FILLER_33_225
*1072 FILLER_33_237
*1073 FILLER_33_249
*1074 FILLER_33_261
*1075 FILLER_33_27
*1076 FILLER_33_273
*1077 FILLER_33_279
*1078 FILLER_33_281
*1079 FILLER_33_293
*1080 FILLER_33_3
*1081 FILLER_33_39
*1082 FILLER_33_51
*1083 FILLER_33_55
*1084 FILLER_33_57
*1085 FILLER_33_69
*1086 FILLER_33_81
*1087 FILLER_33_93
*1088 FILLER_34_109
*1089 FILLER_34_121
*1090 FILLER_34_133
*1091 FILLER_34_139
*1092 FILLER_34_141
*1093 FILLER_34_15
*1094 FILLER_34_153
*1095 FILLER_34_165
*1096 FILLER_34_177
*1097 FILLER_34_189
*1098 FILLER_34_195
*1099 FILLER_34_197
*1100 FILLER_34_209
*1101 FILLER_34_21
*1102 FILLER_34_221
*1103 FILLER_34_233
*1104 FILLER_34_245
*1105 FILLER_34_251
*1106 FILLER_34_253
*1107 FILLER_34_265
*1108 FILLER_34_27
*1109 FILLER_34_277
*1110 FILLER_34_289
*1111 FILLER_34_29
*1112 FILLER_34_297
*1113 FILLER_34_3
*1114 FILLER_34_36
*1115 FILLER_34_48
*1116 FILLER_34_60
*1117 FILLER_34_72
*1118 FILLER_34_85
*1119 FILLER_34_97
*1120 FILLER_35_11
*1121 FILLER_35_110
*1122 FILLER_35_113
*1123 FILLER_35_125
*1124 FILLER_35_137
*1125 FILLER_35_149
*1126 FILLER_35_161
*1127 FILLER_35_167
*1128 FILLER_35_169
*1129 FILLER_35_181
*1130 FILLER_35_193
*1131 FILLER_35_205
*1132 FILLER_35_217
*1133 FILLER_35_223
*1134 FILLER_35_225
*1135 FILLER_35_237
*1136 FILLER_35_249
*1137 FILLER_35_261
*1138 FILLER_35_273
*1139 FILLER_35_279
*1140 FILLER_35_281
*1141 FILLER_35_29
*1142 FILLER_35_293
*1143 FILLER_35_3
*1144 FILLER_35_37
*1145 FILLER_35_48
*1146 FILLER_35_57
*1147 FILLER_35_67
*1148 FILLER_35_75
*1149 FILLER_35_86
*1150 FILLER_35_98
*1151 FILLER_36_109
*1152 FILLER_36_121
*1153 FILLER_36_133
*1154 FILLER_36_139
*1155 FILLER_36_141
*1156 FILLER_36_153
*1157 FILLER_36_165
*1158 FILLER_36_177
*1159 FILLER_36_189
*1160 FILLER_36_195
*1161 FILLER_36_197
*1162 FILLER_36_209
*1163 FILLER_36_221
*1164 FILLER_36_233
*1165 FILLER_36_245
*1166 FILLER_36_251
*1167 FILLER_36_253
*1168 FILLER_36_26
*1169 FILLER_36_265
*1170 FILLER_36_277
*1171 FILLER_36_289
*1172 FILLER_36_29
*1173 FILLER_36_297
*1174 FILLER_36_3
*1175 FILLER_36_40
*1176 FILLER_36_47
*1177 FILLER_36_61
*1178 FILLER_36_73
*1179 FILLER_36_81
*1180 FILLER_36_85
*1181 FILLER_36_97
*1182 FILLER_37_101
*1183 FILLER_37_109
*1184 FILLER_37_11
*1185 FILLER_37_113
*1186 FILLER_37_125
*1187 FILLER_37_137
*1188 FILLER_37_149
*1189 FILLER_37_161
*1190 FILLER_37_167
*1191 FILLER_37_169
*1192 FILLER_37_181
*1193 FILLER_37_193
*1194 FILLER_37_20
*1195 FILLER_37_205
*1196 FILLER_37_217
*1197 FILLER_37_223
*1198 FILLER_37_225
*1199 FILLER_37_237
*1200 FILLER_37_249
*1201 FILLER_37_261
*1202 FILLER_37_273
*1203 FILLER_37_279
*1204 FILLER_37_28
*1205 FILLER_37_281
*1206 FILLER_37_293
*1207 FILLER_37_3
*1208 FILLER_37_40
*1209 FILLER_37_53
*1210 FILLER_37_57
*1211 FILLER_37_70
*1212 FILLER_37_82
*1213 FILLER_37_93
*1214 FILLER_38_109
*1215 FILLER_38_121
*1216 FILLER_38_133
*1217 FILLER_38_139
*1218 FILLER_38_141
*1219 FILLER_38_15
*1220 FILLER_38_153
*1221 FILLER_38_165
*1222 FILLER_38_177
*1223 FILLER_38_189
*1224 FILLER_38_195
*1225 FILLER_38_197
*1226 FILLER_38_209
*1227 FILLER_38_22
*1228 FILLER_38_221
*1229 FILLER_38_233
*1230 FILLER_38_245
*1231 FILLER_38_251
*1232 FILLER_38_253
*1233 FILLER_38_265
*1234 FILLER_38_277
*1235 FILLER_38_289
*1236 FILLER_38_29
*1237 FILLER_38_297
*1238 FILLER_38_3
*1239 FILLER_38_41
*1240 FILLER_38_53
*1241 FILLER_38_61
*1242 FILLER_38_68
*1243 FILLER_38_80
*1244 FILLER_38_85
*1245 FILLER_38_97
*1246 FILLER_39_105
*1247 FILLER_39_11
*1248 FILLER_39_111
*1249 FILLER_39_113
*1250 FILLER_39_125
*1251 FILLER_39_137
*1252 FILLER_39_149
*1253 FILLER_39_161
*1254 FILLER_39_167
*1255 FILLER_39_169
*1256 FILLER_39_18
*1257 FILLER_39_181
*1258 FILLER_39_193
*1259 FILLER_39_205
*1260 FILLER_39_217
*1261 FILLER_39_223
*1262 FILLER_39_225
*1263 FILLER_39_237
*1264 FILLER_39_249
*1265 FILLER_39_261
*1266 FILLER_39_273
*1267 FILLER_39_279
*1268 FILLER_39_281
*1269 FILLER_39_293
*1270 FILLER_39_3
*1271 FILLER_39_30
*1272 FILLER_39_42
*1273 FILLER_39_54
*1274 FILLER_39_57
*1275 FILLER_39_69
*1276 FILLER_39_81
*1277 FILLER_39_93
*1278 FILLER_3_104
*1279 FILLER_3_113
*1280 FILLER_3_131
*1281 FILLER_3_143
*1282 FILLER_3_155
*1283 FILLER_3_167
*1284 FILLER_3_169
*1285 FILLER_3_181
*1286 FILLER_3_193
*1287 FILLER_3_205
*1288 FILLER_3_217
*1289 FILLER_3_223
*1290 FILLER_3_225
*1291 FILLER_3_237
*1292 FILLER_3_24
*1293 FILLER_3_249
*1294 FILLER_3_261
*1295 FILLER_3_273
*1296 FILLER_3_279
*1297 FILLER_3_281
*1298 FILLER_3_293
*1299 FILLER_3_3
*1300 FILLER_3_44
*1301 FILLER_3_57
*1302 FILLER_3_65
*1303 FILLER_3_7
*1304 FILLER_3_84
*1305 FILLER_40_109
*1306 FILLER_40_121
*1307 FILLER_40_133
*1308 FILLER_40_139
*1309 FILLER_40_141
*1310 FILLER_40_15
*1311 FILLER_40_153
*1312 FILLER_40_165
*1313 FILLER_40_177
*1314 FILLER_40_189
*1315 FILLER_40_195
*1316 FILLER_40_197
*1317 FILLER_40_209
*1318 FILLER_40_221
*1319 FILLER_40_233
*1320 FILLER_40_245
*1321 FILLER_40_251
*1322 FILLER_40_253
*1323 FILLER_40_265
*1324 FILLER_40_27
*1325 FILLER_40_277
*1326 FILLER_40_289
*1327 FILLER_40_29
*1328 FILLER_40_297
*1329 FILLER_40_3
*1330 FILLER_40_41
*1331 FILLER_40_53
*1332 FILLER_40_65
*1333 FILLER_40_77
*1334 FILLER_40_83
*1335 FILLER_40_85
*1336 FILLER_40_97
*1337 FILLER_41_105
*1338 FILLER_41_111
*1339 FILLER_41_113
*1340 FILLER_41_125
*1341 FILLER_41_137
*1342 FILLER_41_149
*1343 FILLER_41_15
*1344 FILLER_41_161
*1345 FILLER_41_167
*1346 FILLER_41_169
*1347 FILLER_41_181
*1348 FILLER_41_193
*1349 FILLER_41_205
*1350 FILLER_41_217
*1351 FILLER_41_223
*1352 FILLER_41_225
*1353 FILLER_41_237
*1354 FILLER_41_249
*1355 FILLER_41_261
*1356 FILLER_41_27
*1357 FILLER_41_273
*1358 FILLER_41_279
*1359 FILLER_41_281
*1360 FILLER_41_293
*1361 FILLER_41_3
*1362 FILLER_41_39
*1363 FILLER_41_51
*1364 FILLER_41_55
*1365 FILLER_41_57
*1366 FILLER_41_69
*1367 FILLER_41_81
*1368 FILLER_41_93
*1369 FILLER_42_109
*1370 FILLER_42_121
*1371 FILLER_42_133
*1372 FILLER_42_139
*1373 FILLER_42_141
*1374 FILLER_42_15
*1375 FILLER_42_153
*1376 FILLER_42_165
*1377 FILLER_42_177
*1378 FILLER_42_189
*1379 FILLER_42_195
*1380 FILLER_42_197
*1381 FILLER_42_209
*1382 FILLER_42_221
*1383 FILLER_42_233
*1384 FILLER_42_245
*1385 FILLER_42_251
*1386 FILLER_42_253
*1387 FILLER_42_265
*1388 FILLER_42_27
*1389 FILLER_42_277
*1390 FILLER_42_289
*1391 FILLER_42_29
*1392 FILLER_42_297
*1393 FILLER_42_3
*1394 FILLER_42_41
*1395 FILLER_42_53
*1396 FILLER_42_65
*1397 FILLER_42_77
*1398 FILLER_42_83
*1399 FILLER_42_85
*1400 FILLER_42_97
*1401 FILLER_43_105
*1402 FILLER_43_111
*1403 FILLER_43_113
*1404 FILLER_43_125
*1405 FILLER_43_137
*1406 FILLER_43_149
*1407 FILLER_43_15
*1408 FILLER_43_161
*1409 FILLER_43_167
*1410 FILLER_43_169
*1411 FILLER_43_181
*1412 FILLER_43_193
*1413 FILLER_43_205
*1414 FILLER_43_217
*1415 FILLER_43_223
*1416 FILLER_43_225
*1417 FILLER_43_237
*1418 FILLER_43_249
*1419 FILLER_43_25
*1420 FILLER_43_261
*1421 FILLER_43_273
*1422 FILLER_43_279
*1423 FILLER_43_281
*1424 FILLER_43_293
*1425 FILLER_43_3
*1426 FILLER_43_37
*1427 FILLER_43_42
*1428 FILLER_43_50
*1429 FILLER_43_57
*1430 FILLER_43_69
*1431 FILLER_43_81
*1432 FILLER_43_93
*1433 FILLER_44_109
*1434 FILLER_44_11
*1435 FILLER_44_121
*1436 FILLER_44_133
*1437 FILLER_44_139
*1438 FILLER_44_141
*1439 FILLER_44_15
*1440 FILLER_44_153
*1441 FILLER_44_165
*1442 FILLER_44_177
*1443 FILLER_44_189
*1444 FILLER_44_195
*1445 FILLER_44_197
*1446 FILLER_44_209
*1447 FILLER_44_221
*1448 FILLER_44_233
*1449 FILLER_44_245
*1450 FILLER_44_251
*1451 FILLER_44_253
*1452 FILLER_44_265
*1453 FILLER_44_27
*1454 FILLER_44_277
*1455 FILLER_44_289
*1456 FILLER_44_29
*1457 FILLER_44_297
*1458 FILLER_44_3
*1459 FILLER_44_41
*1460 FILLER_44_53
*1461 FILLER_44_65
*1462 FILLER_44_77
*1463 FILLER_44_83
*1464 FILLER_44_85
*1465 FILLER_44_97
*1466 FILLER_45_105
*1467 FILLER_45_111
*1468 FILLER_45_113
*1469 FILLER_45_125
*1470 FILLER_45_137
*1471 FILLER_45_149
*1472 FILLER_45_15
*1473 FILLER_45_161
*1474 FILLER_45_167
*1475 FILLER_45_169
*1476 FILLER_45_181
*1477 FILLER_45_193
*1478 FILLER_45_205
*1479 FILLER_45_217
*1480 FILLER_45_223
*1481 FILLER_45_225
*1482 FILLER_45_237
*1483 FILLER_45_249
*1484 FILLER_45_261
*1485 FILLER_45_27
*1486 FILLER_45_273
*1487 FILLER_45_279
*1488 FILLER_45_281
*1489 FILLER_45_293
*1490 FILLER_45_3
*1491 FILLER_45_39
*1492 FILLER_45_51
*1493 FILLER_45_55
*1494 FILLER_45_57
*1495 FILLER_45_69
*1496 FILLER_45_81
*1497 FILLER_45_93
*1498 FILLER_46_109
*1499 FILLER_46_121
*1500 FILLER_46_133
*1501 FILLER_46_139
*1502 FILLER_46_141
*1503 FILLER_46_15
*1504 FILLER_46_153
*1505 FILLER_46_165
*1506 FILLER_46_177
*1507 FILLER_46_189
*1508 FILLER_46_195
*1509 FILLER_46_197
*1510 FILLER_46_209
*1511 FILLER_46_221
*1512 FILLER_46_233
*1513 FILLER_46_245
*1514 FILLER_46_251
*1515 FILLER_46_253
*1516 FILLER_46_265
*1517 FILLER_46_27
*1518 FILLER_46_277
*1519 FILLER_46_289
*1520 FILLER_46_29
*1521 FILLER_46_297
*1522 FILLER_46_3
*1523 FILLER_46_41
*1524 FILLER_46_53
*1525 FILLER_46_65
*1526 FILLER_46_77
*1527 FILLER_46_83
*1528 FILLER_46_85
*1529 FILLER_46_97
*1530 FILLER_47_105
*1531 FILLER_47_111
*1532 FILLER_47_113
*1533 FILLER_47_125
*1534 FILLER_47_137
*1535 FILLER_47_149
*1536 FILLER_47_15
*1537 FILLER_47_161
*1538 FILLER_47_167
*1539 FILLER_47_169
*1540 FILLER_47_181
*1541 FILLER_47_193
*1542 FILLER_47_205
*1543 FILLER_47_217
*1544 FILLER_47_223
*1545 FILLER_47_225
*1546 FILLER_47_237
*1547 FILLER_47_249
*1548 FILLER_47_261
*1549 FILLER_47_27
*1550 FILLER_47_273
*1551 FILLER_47_279
*1552 FILLER_47_281
*1553 FILLER_47_293
*1554 FILLER_47_3
*1555 FILLER_47_39
*1556 FILLER_47_51
*1557 FILLER_47_55
*1558 FILLER_47_57
*1559 FILLER_47_69
*1560 FILLER_47_81
*1561 FILLER_47_93
*1562 FILLER_48_109
*1563 FILLER_48_121
*1564 FILLER_48_133
*1565 FILLER_48_139
*1566 FILLER_48_141
*1567 FILLER_48_15
*1568 FILLER_48_153
*1569 FILLER_48_165
*1570 FILLER_48_177
*1571 FILLER_48_189
*1572 FILLER_48_195
*1573 FILLER_48_197
*1574 FILLER_48_209
*1575 FILLER_48_221
*1576 FILLER_48_233
*1577 FILLER_48_245
*1578 FILLER_48_251
*1579 FILLER_48_253
*1580 FILLER_48_265
*1581 FILLER_48_27
*1582 FILLER_48_277
*1583 FILLER_48_289
*1584 FILLER_48_29
*1585 FILLER_48_297
*1586 FILLER_48_3
*1587 FILLER_48_41
*1588 FILLER_48_53
*1589 FILLER_48_65
*1590 FILLER_48_77
*1591 FILLER_48_83
*1592 FILLER_48_85
*1593 FILLER_48_97
*1594 FILLER_49_105
*1595 FILLER_49_111
*1596 FILLER_49_113
*1597 FILLER_49_125
*1598 FILLER_49_137
*1599 FILLER_49_149
*1600 FILLER_49_15
*1601 FILLER_49_161
*1602 FILLER_49_167
*1603 FILLER_49_169
*1604 FILLER_49_181
*1605 FILLER_49_193
*1606 FILLER_49_205
*1607 FILLER_49_217
*1608 FILLER_49_223
*1609 FILLER_49_225
*1610 FILLER_49_237
*1611 FILLER_49_249
*1612 FILLER_49_261
*1613 FILLER_49_27
*1614 FILLER_49_273
*1615 FILLER_49_279
*1616 FILLER_49_281
*1617 FILLER_49_293
*1618 FILLER_49_3
*1619 FILLER_49_39
*1620 FILLER_49_51
*1621 FILLER_49_55
*1622 FILLER_49_57
*1623 FILLER_49_69
*1624 FILLER_49_81
*1625 FILLER_49_93