*SPEF "ieee 1481-1999"
*DESIGN "user_module_348540666182107731"
*DATE "11:11:11 Fri 11 11, 1111"
*VENDOR "OpenRCX"
*PROGRAM "Parallel Extraction"
*VERSION "1.0"
*DESIGN_FLOW "NAME_SCOPE LOCAL" "PIN_CAP NONE"
*DIVIDER /
*DELIMITER :
*BUS_DELIMITER []
*T_UNIT 1 NS
*C_UNIT 1 PF
*R_UNIT 1 OHM
*L_UNIT 1 HENRY

*NAME_MAP
*1 io_in[0]
*2 io_in[1]
*3 io_in[2]
*4 io_in[3]
*5 io_in[4]
*6 io_in[5]
*7 io_in[6]
*8 io_in[7]
*9 io_out[0]
*10 io_out[1]
*11 io_out[2]
*12 io_out[3]
*13 io_out[4]
*14 io_out[5]
*15 io_out[6]
*16 io_out[7]
*19 _00_
*20 _01_
*21 _02_
*22 _03_
*23 clknet_0_io_in[0]
*24 clknet_1_0__leaf_io_in[0]
*25 clknet_1_1__leaf_io_in[0]
*26 flipflop1\.notq
*27 flipflop1\.q
*28 flipflop2\.notq
*29 flipflop2\.q
*30 gate10\.b
*31 gate4\.b
*32 gate4\.out
*33 net1
*34 net2
*35 net3
*36 net4
*37 net5
*38 net6
*39 net7
*40 net8
*41 FILLER_0_109
*42 FILLER_0_113
*43 FILLER_0_125
*44 FILLER_0_137
*45 FILLER_0_141
*46 FILLER_0_15
*47 FILLER_0_153
*48 FILLER_0_165
*49 FILLER_0_169
*50 FILLER_0_181
*51 FILLER_0_193
*52 FILLER_0_197
*53 FILLER_0_209
*54 FILLER_0_221
*55 FILLER_0_225
*56 FILLER_0_237
*57 FILLER_0_249
*58 FILLER_0_253
*59 FILLER_0_265
*60 FILLER_0_27
*61 FILLER_0_277
*62 FILLER_0_281
*63 FILLER_0_29
*64 FILLER_0_293
*65 FILLER_0_3
*66 FILLER_0_41
*67 FILLER_0_53
*68 FILLER_0_57
*69 FILLER_0_69
*70 FILLER_0_81
*71 FILLER_0_85
*72 FILLER_0_97
*73 FILLER_10_109
*74 FILLER_10_121
*75 FILLER_10_133
*76 FILLER_10_139
*77 FILLER_10_141
*78 FILLER_10_15
*79 FILLER_10_153
*80 FILLER_10_165
*81 FILLER_10_177
*82 FILLER_10_189
*83 FILLER_10_195
*84 FILLER_10_197
*85 FILLER_10_209
*86 FILLER_10_221
*87 FILLER_10_233
*88 FILLER_10_245
*89 FILLER_10_251
*90 FILLER_10_253
*91 FILLER_10_265
*92 FILLER_10_27
*93 FILLER_10_277
*94 FILLER_10_289
*95 FILLER_10_29
*96 FILLER_10_297
*97 FILLER_10_3
*98 FILLER_10_41
*99 FILLER_10_53
*100 FILLER_10_65
*101 FILLER_10_77
*102 FILLER_10_83
*103 FILLER_10_85
*104 FILLER_10_97
*105 FILLER_11_105
*106 FILLER_11_111
*107 FILLER_11_113
*108 FILLER_11_125
*109 FILLER_11_137
*110 FILLER_11_149
*111 FILLER_11_15
*112 FILLER_11_161
*113 FILLER_11_167
*114 FILLER_11_169
*115 FILLER_11_181
*116 FILLER_11_193
*117 FILLER_11_205
*118 FILLER_11_217
*119 FILLER_11_223
*120 FILLER_11_225
*121 FILLER_11_237
*122 FILLER_11_249
*123 FILLER_11_261
*124 FILLER_11_27
*125 FILLER_11_273
*126 FILLER_11_279
*127 FILLER_11_281
*128 FILLER_11_293
*129 FILLER_11_3
*130 FILLER_11_39
*131 FILLER_11_51
*132 FILLER_11_55
*133 FILLER_11_57
*134 FILLER_11_69
*135 FILLER_11_81
*136 FILLER_11_93
*137 FILLER_12_109
*138 FILLER_12_121
*139 FILLER_12_133
*140 FILLER_12_139
*141 FILLER_12_141
*142 FILLER_12_153
*143 FILLER_12_165
*144 FILLER_12_177
*145 FILLER_12_189
*146 FILLER_12_195
*147 FILLER_12_197
*148 FILLER_12_20
*149 FILLER_12_209
*150 FILLER_12_221
*151 FILLER_12_233
*152 FILLER_12_245
*153 FILLER_12_251
*154 FILLER_12_253
*155 FILLER_12_265
*156 FILLER_12_277
*157 FILLER_12_289
*158 FILLER_12_29
*159 FILLER_12_297
*160 FILLER_12_3
*161 FILLER_12_41
*162 FILLER_12_53
*163 FILLER_12_65
*164 FILLER_12_77
*165 FILLER_12_8
*166 FILLER_12_83
*167 FILLER_12_85
*168 FILLER_12_97
*169 FILLER_13_105
*170 FILLER_13_111
*171 FILLER_13_113
*172 FILLER_13_125
*173 FILLER_13_137
*174 FILLER_13_149
*175 FILLER_13_15
*176 FILLER_13_161
*177 FILLER_13_167
*178 FILLER_13_169
*179 FILLER_13_181
*180 FILLER_13_193
*181 FILLER_13_205
*182 FILLER_13_217
*183 FILLER_13_223
*184 FILLER_13_225
*185 FILLER_13_237
*186 FILLER_13_249
*187 FILLER_13_261
*188 FILLER_13_27
*189 FILLER_13_273
*190 FILLER_13_279
*191 FILLER_13_281
*192 FILLER_13_293
*193 FILLER_13_3
*194 FILLER_13_39
*195 FILLER_13_51
*196 FILLER_13_55
*197 FILLER_13_57
*198 FILLER_13_69
*199 FILLER_13_81
*200 FILLER_13_93
*201 FILLER_14_109
*202 FILLER_14_121
*203 FILLER_14_133
*204 FILLER_14_139
*205 FILLER_14_141
*206 FILLER_14_153
*207 FILLER_14_165
*208 FILLER_14_177
*209 FILLER_14_189
*210 FILLER_14_195
*211 FILLER_14_197
*212 FILLER_14_209
*213 FILLER_14_21
*214 FILLER_14_221
*215 FILLER_14_233
*216 FILLER_14_245
*217 FILLER_14_251
*218 FILLER_14_253
*219 FILLER_14_265
*220 FILLER_14_27
*221 FILLER_14_277
*222 FILLER_14_289
*223 FILLER_14_29
*224 FILLER_14_297
*225 FILLER_14_3
*226 FILLER_14_41
*227 FILLER_14_53
*228 FILLER_14_65
*229 FILLER_14_77
*230 FILLER_14_83
*231 FILLER_14_85
*232 FILLER_14_97
*233 FILLER_15_105
*234 FILLER_15_111
*235 FILLER_15_113
*236 FILLER_15_125
*237 FILLER_15_137
*238 FILLER_15_149
*239 FILLER_15_15
*240 FILLER_15_161
*241 FILLER_15_167
*242 FILLER_15_169
*243 FILLER_15_181
*244 FILLER_15_193
*245 FILLER_15_205
*246 FILLER_15_217
*247 FILLER_15_223
*248 FILLER_15_225
*249 FILLER_15_237
*250 FILLER_15_249
*251 FILLER_15_261
*252 FILLER_15_27
*253 FILLER_15_273
*254 FILLER_15_279
*255 FILLER_15_281
*256 FILLER_15_293
*257 FILLER_15_3
*258 FILLER_15_39
*259 FILLER_15_51
*260 FILLER_15_55
*261 FILLER_15_57
*262 FILLER_15_69
*263 FILLER_15_81
*264 FILLER_15_93
*265 FILLER_16_109
*266 FILLER_16_121
*267 FILLER_16_133
*268 FILLER_16_139
*269 FILLER_16_141
*270 FILLER_16_153
*271 FILLER_16_165
*272 FILLER_16_177
*273 FILLER_16_189
*274 FILLER_16_195
*275 FILLER_16_197
*276 FILLER_16_20
*277 FILLER_16_209
*278 FILLER_16_221
*279 FILLER_16_233
*280 FILLER_16_245
*281 FILLER_16_251
*282 FILLER_16_253
*283 FILLER_16_265
*284 FILLER_16_277
*285 FILLER_16_289
*286 FILLER_16_29
*287 FILLER_16_297
*288 FILLER_16_3
*289 FILLER_16_41
*290 FILLER_16_53
*291 FILLER_16_65
*292 FILLER_16_77
*293 FILLER_16_8
*294 FILLER_16_83
*295 FILLER_16_85
*296 FILLER_16_97
*297 FILLER_17_105
*298 FILLER_17_111
*299 FILLER_17_113
*300 FILLER_17_125
*301 FILLER_17_137
*302 FILLER_17_149
*303 FILLER_17_16
*304 FILLER_17_161
*305 FILLER_17_167
*306 FILLER_17_169
*307 FILLER_17_181
*308 FILLER_17_193
*309 FILLER_17_205
*310 FILLER_17_217
*311 FILLER_17_223
*312 FILLER_17_225
*313 FILLER_17_237
*314 FILLER_17_249
*315 FILLER_17_261
*316 FILLER_17_273
*317 FILLER_17_279
*318 FILLER_17_28
*319 FILLER_17_281
*320 FILLER_17_293
*321 FILLER_17_3
*322 FILLER_17_40
*323 FILLER_17_52
*324 FILLER_17_57
*325 FILLER_17_69
*326 FILLER_17_81
*327 FILLER_17_9
*328 FILLER_17_93
*329 FILLER_18_109
*330 FILLER_18_121
*331 FILLER_18_133
*332 FILLER_18_139
*333 FILLER_18_141
*334 FILLER_18_153
*335 FILLER_18_165
*336 FILLER_18_177
*337 FILLER_18_189
*338 FILLER_18_195
*339 FILLER_18_197
*340 FILLER_18_20
*341 FILLER_18_209
*342 FILLER_18_221
*343 FILLER_18_233
*344 FILLER_18_245
*345 FILLER_18_251
*346 FILLER_18_253
*347 FILLER_18_265
*348 FILLER_18_277
*349 FILLER_18_289
*350 FILLER_18_29
*351 FILLER_18_297
*352 FILLER_18_3
*353 FILLER_18_41
*354 FILLER_18_53
*355 FILLER_18_65
*356 FILLER_18_77
*357 FILLER_18_8
*358 FILLER_18_83
*359 FILLER_18_85
*360 FILLER_18_97
*361 FILLER_19_105
*362 FILLER_19_111
*363 FILLER_19_113
*364 FILLER_19_125
*365 FILLER_19_137
*366 FILLER_19_149
*367 FILLER_19_161
*368 FILLER_19_167
*369 FILLER_19_169
*370 FILLER_19_181
*371 FILLER_19_193
*372 FILLER_19_205
*373 FILLER_19_217
*374 FILLER_19_223
*375 FILLER_19_225
*376 FILLER_19_237
*377 FILLER_19_249
*378 FILLER_19_261
*379 FILLER_19_273
*380 FILLER_19_279
*381 FILLER_19_281
*382 FILLER_19_293
*383 FILLER_19_3
*384 FILLER_19_31
*385 FILLER_19_43
*386 FILLER_19_55
*387 FILLER_19_57
*388 FILLER_19_69
*389 FILLER_19_81
*390 FILLER_19_93
*391 FILLER_1_105
*392 FILLER_1_111
*393 FILLER_1_113
*394 FILLER_1_125
*395 FILLER_1_137
*396 FILLER_1_149
*397 FILLER_1_15
*398 FILLER_1_161
*399 FILLER_1_167
*400 FILLER_1_169
*401 FILLER_1_181
*402 FILLER_1_193
*403 FILLER_1_205
*404 FILLER_1_217
*405 FILLER_1_223
*406 FILLER_1_225
*407 FILLER_1_237
*408 FILLER_1_249
*409 FILLER_1_261
*410 FILLER_1_27
*411 FILLER_1_273
*412 FILLER_1_279
*413 FILLER_1_281
*414 FILLER_1_293
*415 FILLER_1_3
*416 FILLER_1_39
*417 FILLER_1_51
*418 FILLER_1_55
*419 FILLER_1_57
*420 FILLER_1_69
*421 FILLER_1_81
*422 FILLER_1_93
*423 FILLER_20_109
*424 FILLER_20_121
*425 FILLER_20_133
*426 FILLER_20_139
*427 FILLER_20_141
*428 FILLER_20_153
*429 FILLER_20_165
*430 FILLER_20_177
*431 FILLER_20_189
*432 FILLER_20_195
*433 FILLER_20_197
*434 FILLER_20_20
*435 FILLER_20_209
*436 FILLER_20_221
*437 FILLER_20_233
*438 FILLER_20_245
*439 FILLER_20_251
*440 FILLER_20_253
*441 FILLER_20_265
*442 FILLER_20_277
*443 FILLER_20_289
*444 FILLER_20_29
*445 FILLER_20_297
*446 FILLER_20_3
*447 FILLER_20_41
*448 FILLER_20_53
*449 FILLER_20_65
*450 FILLER_20_77
*451 FILLER_20_8
*452 FILLER_20_83
*453 FILLER_20_85
*454 FILLER_20_97
*455 FILLER_21_105
*456 FILLER_21_111
*457 FILLER_21_113
*458 FILLER_21_125
*459 FILLER_21_137
*460 FILLER_21_149
*461 FILLER_21_15
*462 FILLER_21_161
*463 FILLER_21_167
*464 FILLER_21_169
*465 FILLER_21_181
*466 FILLER_21_193
*467 FILLER_21_205
*468 FILLER_21_217
*469 FILLER_21_223
*470 FILLER_21_225
*471 FILLER_21_237
*472 FILLER_21_249
*473 FILLER_21_261
*474 FILLER_21_27
*475 FILLER_21_273
*476 FILLER_21_279
*477 FILLER_21_281
*478 FILLER_21_293
*479 FILLER_21_3
*480 FILLER_21_39
*481 FILLER_21_51
*482 FILLER_21_55
*483 FILLER_21_57
*484 FILLER_21_69
*485 FILLER_21_81
*486 FILLER_21_93
*487 FILLER_22_10
*488 FILLER_22_109
*489 FILLER_22_121
*490 FILLER_22_133
*491 FILLER_22_139
*492 FILLER_22_141
*493 FILLER_22_153
*494 FILLER_22_165
*495 FILLER_22_177
*496 FILLER_22_18
*497 FILLER_22_189
*498 FILLER_22_195
*499 FILLER_22_197
*500 FILLER_22_209
*501 FILLER_22_221
*502 FILLER_22_233
*503 FILLER_22_245
*504 FILLER_22_251
*505 FILLER_22_253
*506 FILLER_22_26
*507 FILLER_22_265
*508 FILLER_22_277
*509 FILLER_22_289
*510 FILLER_22_29
*511 FILLER_22_297
*512 FILLER_22_3
*513 FILLER_22_41
*514 FILLER_22_53
*515 FILLER_22_65
*516 FILLER_22_77
*517 FILLER_22_83
*518 FILLER_22_85
*519 FILLER_22_97
*520 FILLER_23_105
*521 FILLER_23_111
*522 FILLER_23_113
*523 FILLER_23_125
*524 FILLER_23_137
*525 FILLER_23_149
*526 FILLER_23_15
*527 FILLER_23_161
*528 FILLER_23_167
*529 FILLER_23_169
*530 FILLER_23_181
*531 FILLER_23_193
*532 FILLER_23_205
*533 FILLER_23_217
*534 FILLER_23_223
*535 FILLER_23_225
*536 FILLER_23_237
*537 FILLER_23_249
*538 FILLER_23_261
*539 FILLER_23_27
*540 FILLER_23_273
*541 FILLER_23_279
*542 FILLER_23_281
*543 FILLER_23_293
*544 FILLER_23_3
*545 FILLER_23_39
*546 FILLER_23_51
*547 FILLER_23_55
*548 FILLER_23_57
*549 FILLER_23_69
*550 FILLER_23_81
*551 FILLER_23_93
*552 FILLER_24_109
*553 FILLER_24_121
*554 FILLER_24_133
*555 FILLER_24_139
*556 FILLER_24_141
*557 FILLER_24_153
*558 FILLER_24_165
*559 FILLER_24_177
*560 FILLER_24_189
*561 FILLER_24_195
*562 FILLER_24_197
*563 FILLER_24_20
*564 FILLER_24_209
*565 FILLER_24_221
*566 FILLER_24_233
*567 FILLER_24_245
*568 FILLER_24_251
*569 FILLER_24_253
*570 FILLER_24_265
*571 FILLER_24_277
*572 FILLER_24_289
*573 FILLER_24_29
*574 FILLER_24_297
*575 FILLER_24_3
*576 FILLER_24_41
*577 FILLER_24_53
*578 FILLER_24_65
*579 FILLER_24_77
*580 FILLER_24_8
*581 FILLER_24_83
*582 FILLER_24_85
*583 FILLER_24_97
*584 FILLER_25_105
*585 FILLER_25_111
*586 FILLER_25_113
*587 FILLER_25_125
*588 FILLER_25_137
*589 FILLER_25_149
*590 FILLER_25_15
*591 FILLER_25_161
*592 FILLER_25_167
*593 FILLER_25_169
*594 FILLER_25_181
*595 FILLER_25_193
*596 FILLER_25_205
*597 FILLER_25_217
*598 FILLER_25_223
*599 FILLER_25_225
*600 FILLER_25_237
*601 FILLER_25_249
*602 FILLER_25_261
*603 FILLER_25_27
*604 FILLER_25_273
*605 FILLER_25_279
*606 FILLER_25_281
*607 FILLER_25_293
*608 FILLER_25_3
*609 FILLER_25_39
*610 FILLER_25_51
*611 FILLER_25_55
*612 FILLER_25_57
*613 FILLER_25_69
*614 FILLER_25_8
*615 FILLER_25_81
*616 FILLER_25_93
*617 FILLER_26_109
*618 FILLER_26_11
*619 FILLER_26_121
*620 FILLER_26_133
*621 FILLER_26_139
*622 FILLER_26_141
*623 FILLER_26_153
*624 FILLER_26_165
*625 FILLER_26_177
*626 FILLER_26_18
*627 FILLER_26_189
*628 FILLER_26_195
*629 FILLER_26_197
*630 FILLER_26_209
*631 FILLER_26_221
*632 FILLER_26_233
*633 FILLER_26_245
*634 FILLER_26_251
*635 FILLER_26_253
*636 FILLER_26_26
*637 FILLER_26_265
*638 FILLER_26_277
*639 FILLER_26_289
*640 FILLER_26_29
*641 FILLER_26_297
*642 FILLER_26_3
*643 FILLER_26_41
*644 FILLER_26_53
*645 FILLER_26_65
*646 FILLER_26_77
*647 FILLER_26_83
*648 FILLER_26_85
*649 FILLER_26_97
*650 FILLER_27_105
*651 FILLER_27_111
*652 FILLER_27_113
*653 FILLER_27_125
*654 FILLER_27_137
*655 FILLER_27_149
*656 FILLER_27_161
*657 FILLER_27_167
*658 FILLER_27_169
*659 FILLER_27_181
*660 FILLER_27_193
*661 FILLER_27_205
*662 FILLER_27_217
*663 FILLER_27_223
*664 FILLER_27_225
*665 FILLER_27_237
*666 FILLER_27_249
*667 FILLER_27_25
*668 FILLER_27_261
*669 FILLER_27_273
*670 FILLER_27_279
*671 FILLER_27_281
*672 FILLER_27_293
*673 FILLER_27_3
*674 FILLER_27_37
*675 FILLER_27_49
*676 FILLER_27_55
*677 FILLER_27_57
*678 FILLER_27_69
*679 FILLER_27_81
*680 FILLER_27_93
*681 FILLER_28_109
*682 FILLER_28_11
*683 FILLER_28_121
*684 FILLER_28_133
*685 FILLER_28_139
*686 FILLER_28_141
*687 FILLER_28_153
*688 FILLER_28_165
*689 FILLER_28_177
*690 FILLER_28_189
*691 FILLER_28_195
*692 FILLER_28_197
*693 FILLER_28_209
*694 FILLER_28_221
*695 FILLER_28_23
*696 FILLER_28_233
*697 FILLER_28_245
*698 FILLER_28_251
*699 FILLER_28_253
*700 FILLER_28_265
*701 FILLER_28_27
*702 FILLER_28_277
*703 FILLER_28_289
*704 FILLER_28_29
*705 FILLER_28_297
*706 FILLER_28_3
*707 FILLER_28_41
*708 FILLER_28_53
*709 FILLER_28_65
*710 FILLER_28_77
*711 FILLER_28_83
*712 FILLER_28_85
*713 FILLER_28_97
*714 FILLER_29_105
*715 FILLER_29_111
*716 FILLER_29_113
*717 FILLER_29_125
*718 FILLER_29_137
*719 FILLER_29_149
*720 FILLER_29_161
*721 FILLER_29_167
*722 FILLER_29_169
*723 FILLER_29_181
*724 FILLER_29_193
*725 FILLER_29_205
*726 FILLER_29_21
*727 FILLER_29_217
*728 FILLER_29_223
*729 FILLER_29_225
*730 FILLER_29_237
*731 FILLER_29_249
*732 FILLER_29_261
*733 FILLER_29_273
*734 FILLER_29_279
*735 FILLER_29_281
*736 FILLER_29_293
*737 FILLER_29_3
*738 FILLER_29_33
*739 FILLER_29_45
*740 FILLER_29_53
*741 FILLER_29_57
*742 FILLER_29_69
*743 FILLER_29_81
*744 FILLER_29_9
*745 FILLER_29_93
*746 FILLER_2_109
*747 FILLER_2_121
*748 FILLER_2_133
*749 FILLER_2_139
*750 FILLER_2_141
*751 FILLER_2_15
*752 FILLER_2_153
*753 FILLER_2_165
*754 FILLER_2_177
*755 FILLER_2_189
*756 FILLER_2_195
*757 FILLER_2_197
*758 FILLER_2_209
*759 FILLER_2_221
*760 FILLER_2_233
*761 FILLER_2_245
*762 FILLER_2_251
*763 FILLER_2_253
*764 FILLER_2_265
*765 FILLER_2_27
*766 FILLER_2_277
*767 FILLER_2_289
*768 FILLER_2_29
*769 FILLER_2_297
*770 FILLER_2_3
*771 FILLER_2_41
*772 FILLER_2_53
*773 FILLER_2_65
*774 FILLER_2_77
*775 FILLER_2_83
*776 FILLER_2_85
*777 FILLER_2_97
*778 FILLER_30_109
*779 FILLER_30_121
*780 FILLER_30_133
*781 FILLER_30_139
*782 FILLER_30_141
*783 FILLER_30_153
*784 FILLER_30_165
*785 FILLER_30_17
*786 FILLER_30_177
*787 FILLER_30_189
*788 FILLER_30_195
*789 FILLER_30_197
*790 FILLER_30_209
*791 FILLER_30_221
*792 FILLER_30_233
*793 FILLER_30_245
*794 FILLER_30_25
*795 FILLER_30_251
*796 FILLER_30_253
*797 FILLER_30_265
*798 FILLER_30_277
*799 FILLER_30_289
*800 FILLER_30_29
*801 FILLER_30_297
*802 FILLER_30_3
*803 FILLER_30_41
*804 FILLER_30_53
*805 FILLER_30_65
*806 FILLER_30_77
*807 FILLER_30_83
*808 FILLER_30_85
*809 FILLER_30_9
*810 FILLER_30_97
*811 FILLER_31_105
*812 FILLER_31_111
*813 FILLER_31_113
*814 FILLER_31_125
*815 FILLER_31_137
*816 FILLER_31_149
*817 FILLER_31_161
*818 FILLER_31_167
*819 FILLER_31_169
*820 FILLER_31_181
*821 FILLER_31_193
*822 FILLER_31_205
*823 FILLER_31_21
*824 FILLER_31_217
*825 FILLER_31_223
*826 FILLER_31_225
*827 FILLER_31_237
*828 FILLER_31_249
*829 FILLER_31_261
*830 FILLER_31_273
*831 FILLER_31_279
*832 FILLER_31_281
*833 FILLER_31_293
*834 FILLER_31_3
*835 FILLER_31_33
*836 FILLER_31_45
*837 FILLER_31_53
*838 FILLER_31_57
*839 FILLER_31_69
*840 FILLER_31_81
*841 FILLER_31_9
*842 FILLER_31_93
*843 FILLER_32_109
*844 FILLER_32_121
*845 FILLER_32_133
*846 FILLER_32_139
*847 FILLER_32_141
*848 FILLER_32_153
*849 FILLER_32_165
*850 FILLER_32_177
*851 FILLER_32_189
*852 FILLER_32_195
*853 FILLER_32_197
*854 FILLER_32_209
*855 FILLER_32_21
*856 FILLER_32_221
*857 FILLER_32_233
*858 FILLER_32_245
*859 FILLER_32_251
*860 FILLER_32_253
*861 FILLER_32_265
*862 FILLER_32_27
*863 FILLER_32_277
*864 FILLER_32_289
*865 FILLER_32_29
*866 FILLER_32_297
*867 FILLER_32_3
*868 FILLER_32_41
*869 FILLER_32_53
*870 FILLER_32_65
*871 FILLER_32_77
*872 FILLER_32_83
*873 FILLER_32_85
*874 FILLER_32_9
*875 FILLER_32_97
*876 FILLER_33_105
*877 FILLER_33_111
*878 FILLER_33_113
*879 FILLER_33_125
*880 FILLER_33_137
*881 FILLER_33_149
*882 FILLER_33_161
*883 FILLER_33_167
*884 FILLER_33_169
*885 FILLER_33_181
*886 FILLER_33_193
*887 FILLER_33_205
*888 FILLER_33_21
*889 FILLER_33_217
*890 FILLER_33_223
*891 FILLER_33_225
*892 FILLER_33_237
*893 FILLER_33_249
*894 FILLER_33_261
*895 FILLER_33_273
*896 FILLER_33_279
*897 FILLER_33_281
*898 FILLER_33_293
*899 FILLER_33_3
*900 FILLER_33_33
*901 FILLER_33_45
*902 FILLER_33_53
*903 FILLER_33_57
*904 FILLER_33_69
*905 FILLER_33_81
*906 FILLER_33_9
*907 FILLER_33_93
*908 FILLER_34_109
*909 FILLER_34_121
*910 FILLER_34_133
*911 FILLER_34_139
*912 FILLER_34_141
*913 FILLER_34_15
*914 FILLER_34_153
*915 FILLER_34_165
*916 FILLER_34_177
*917 FILLER_34_189
*918 FILLER_34_195
*919 FILLER_34_197
*920 FILLER_34_209
*921 FILLER_34_221
*922 FILLER_34_233
*923 FILLER_34_245
*924 FILLER_34_251
*925 FILLER_34_253
*926 FILLER_34_265
*927 FILLER_34_27
*928 FILLER_34_277
*929 FILLER_34_289
*930 FILLER_34_29
*931 FILLER_34_297
*932 FILLER_34_3
*933 FILLER_34_41
*934 FILLER_34_53
*935 FILLER_34_65
*936 FILLER_34_77
*937 FILLER_34_83
*938 FILLER_34_85
*939 FILLER_34_97
*940 FILLER_35_105
*941 FILLER_35_111
*942 FILLER_35_113
*943 FILLER_35_125
*944 FILLER_35_137
*945 FILLER_35_149
*946 FILLER_35_161
*947 FILLER_35_167
*948 FILLER_35_169
*949 FILLER_35_181
*950 FILLER_35_193
*951 FILLER_35_205
*952 FILLER_35_217
*953 FILLER_35_223
*954 FILLER_35_225
*955 FILLER_35_237
*956 FILLER_35_249
*957 FILLER_35_261
*958 FILLER_35_273
*959 FILLER_35_279
*960 FILLER_35_281
*961 FILLER_35_293
*962 FILLER_35_3
*963 FILLER_35_35
*964 FILLER_35_47
*965 FILLER_35_55
*966 FILLER_35_57
*967 FILLER_35_69
*968 FILLER_35_81
*969 FILLER_35_93
*970 FILLER_36_109
*971 FILLER_36_121
*972 FILLER_36_133
*973 FILLER_36_139
*974 FILLER_36_141
*975 FILLER_36_153
*976 FILLER_36_165
*977 FILLER_36_177
*978 FILLER_36_189
*979 FILLER_36_195
*980 FILLER_36_197
*981 FILLER_36_209
*982 FILLER_36_221
*983 FILLER_36_233
*984 FILLER_36_245
*985 FILLER_36_25
*986 FILLER_36_251
*987 FILLER_36_253
*988 FILLER_36_265
*989 FILLER_36_277
*990 FILLER_36_289
*991 FILLER_36_29
*992 FILLER_36_297
*993 FILLER_36_3
*994 FILLER_36_41
*995 FILLER_36_53
*996 FILLER_36_65
*997 FILLER_36_77
*998 FILLER_36_83
*999 FILLER_36_85
*1000 FILLER_36_97
*1001 FILLER_37_105
*1002 FILLER_37_111
*1003 FILLER_37_113
*1004 FILLER_37_125
*1005 FILLER_37_137
*1006 FILLER_37_149
*1007 FILLER_37_15
*1008 FILLER_37_161
*1009 FILLER_37_167
*1010 FILLER_37_169
*1011 FILLER_37_181
*1012 FILLER_37_193
*1013 FILLER_37_205
*1014 FILLER_37_217
*1015 FILLER_37_223
*1016 FILLER_37_225
*1017 FILLER_37_237
*1018 FILLER_37_249
*1019 FILLER_37_261
*1020 FILLER_37_27
*1021 FILLER_37_273
*1022 FILLER_37_279
*1023 FILLER_37_281
*1024 FILLER_37_293
*1025 FILLER_37_3
*1026 FILLER_37_39
*1027 FILLER_37_51
*1028 FILLER_37_55
*1029 FILLER_37_57
*1030 FILLER_37_69
*1031 FILLER_37_81
*1032 FILLER_37_93
*1033 FILLER_38_109
*1034 FILLER_38_121
*1035 FILLER_38_133
*1036 FILLER_38_139
*1037 FILLER_38_141
*1038 FILLER_38_15
*1039 FILLER_38_153
*1040 FILLER_38_165
*1041 FILLER_38_177
*1042 FILLER_38_189
*1043 FILLER_38_195
*1044 FILLER_38_197
*1045 FILLER_38_209
*1046 FILLER_38_221
*1047 FILLER_38_233
*1048 FILLER_38_245
*1049 FILLER_38_251
*1050 FILLER_38_253
*1051 FILLER_38_265
*1052 FILLER_38_27
*1053 FILLER_38_277
*1054 FILLER_38_289
*1055 FILLER_38_29
*1056 FILLER_38_297
*1057 FILLER_38_3
*1058 FILLER_38_41
*1059 FILLER_38_53
*1060 FILLER_38_65
*1061 FILLER_38_77
*1062 FILLER_38_83
*1063 FILLER_38_85
*1064 FILLER_38_97
*1065 FILLER_39_105
*1066 FILLER_39_111
*1067 FILLER_39_113
*1068 FILLER_39_125
*1069 FILLER_39_137
*1070 FILLER_39_149
*1071 FILLER_39_15
*1072 FILLER_39_161
*1073 FILLER_39_167
*1074 FILLER_39_169
*1075 FILLER_39_181
*1076 FILLER_39_193
*1077 FILLER_39_205
*1078 FILLER_39_217
*1079 FILLER_39_223
*1080 FILLER_39_225
*1081 FILLER_39_237
*1082 FILLER_39_249
*1083 FILLER_39_261
*1084 FILLER_39_27
*1085 FILLER_39_273
*1086 FILLER_39_279
*1087 FILLER_39_281
*1088 FILLER_39_293
*1089 FILLER_39_3
*1090 FILLER_39_39
*1091 FILLER_39_51
*1092 FILLER_39_55
*1093 FILLER_39_57
*1094 FILLER_39_69
*1095 FILLER_39_81
*1096 FILLER_39_93
*1097 FILLER_3_105
*1098 FILLER_3_111
*1099 FILLER_3_113
*1100 FILLER_3_125
*1101 FILLER_3_137
*1102 FILLER_3_149
*1103 FILLER_3_15
*1104 FILLER_3_161
*1105 FILLER_3_167
*1106 FILLER_3_169
*1107 FILLER_3_181
*1108 FILLER_3_193
*1109 FILLER_3_205
*1110 FILLER_3_217
*1111 FILLER_3_223
*1112 FILLER_3_225
*1113 FILLER_3_237
*1114 FILLER_3_249
*1115 FILLER_3_261
*1116 FILLER_3_27
*1117 FILLER_3_273
*1118 FILLER_3_279
*1119 FILLER_3_281
*1120 FILLER_3_293
*1121 FILLER_3_3
*1122 FILLER_3_39
*1123 FILLER_3_51
*1124 FILLER_3_55
*1125 FILLER_3_57
*1126 FILLER_3_69
*1127 FILLER_3_81
*1128 FILLER_3_93
*1129 FILLER_40_109
*1130 FILLER_40_121
*1131 FILLER_40_133
*1132 FILLER_40_139
*1133 FILLER_40_141
*1134 FILLER_40_15
*1135 FILLER_40_153
*1136 FILLER_40_165
*1137 FILLER_40_177
*1138 FILLER_40_189
*1139 FILLER_40_195
*1140 FILLER_40_197
*1141 FILLER_40_209
*1142 FILLER_40_221
*1143 FILLER_40_233
*1144 FILLER_40_245
*1145 FILLER_40_251
*1146 FILLER_40_253
*1147 FILLER_40_265
*1148 FILLER_40_27
*1149 FILLER_40_277
*1150 FILLER_40_289
*1151 FILLER_40_29
*1152 FILLER_40_297
*1153 FILLER_40_3
*1154 FILLER_40_41
*1155 FILLER_40_53
*1156 FILLER_40_65
*1157 FILLER_40_77
*1158 FILLER_40_83
*1159 FILLER_40_85
*1160 FILLER_40_97
*1161 FILLER_41_105
*1162 FILLER_41_111
*1163 FILLER_41_113
*1164 FILLER_41_125
*1165 FILLER_41_137
*1166 FILLER_41_149
*1167 FILLER_41_15
*1168 FILLER_41_161
*1169 FILLER_41_167
*1170 FILLER_41_169
*1171 FILLER_41_181
*1172 FILLER_41_193
*1173 FILLER_41_205
*1174 FILLER_41_217
*1175 FILLER_41_223
*1176 FILLER_41_225
*1177 FILLER_41_237
*1178 FILLER_41_249
*1179 FILLER_41_261
*1180 FILLER_41_27
*1181 FILLER_41_273
*1182 FILLER_41_279
*1183 FILLER_41_281
*1184 FILLER_41_293
*1185 FILLER_41_3
*1186 FILLER_41_39
*1187 FILLER_41_51
*1188 FILLER_41_55
*1189 FILLER_41_57
*1190 FILLER_41_69
*1191 FILLER_41_81
*1192 FILLER_41_93
*1193 FILLER_42_109
*1194 FILLER_42_121
*1195 FILLER_42_133
*1196 FILLER_42_139
*1197 FILLER_42_141
*1198 FILLER_42_15
*1199 FILLER_42_153
*1200 FILLER_42_165
*1201 FILLER_42_177
*1202 FILLER_42_189
*1203 FILLER_42_195
*1204 FILLER_42_197
*1205 FILLER_42_209
*1206 FILLER_42_221
*1207 FILLER_42_233
*1208 FILLER_42_245
*1209 FILLER_42_251
*1210 FILLER_42_253
*1211 FILLER_42_265
*1212 FILLER_42_27
*1213 FILLER_42_277
*1214 FILLER_42_289
*1215 FILLER_42_29
*1216 FILLER_42_297
*1217 FILLER_42_3
*1218 FILLER_42_41
*1219 FILLER_42_53
*1220 FILLER_42_65
*1221 FILLER_42_77
*1222 FILLER_42_83
*1223 FILLER_42_85
*1224 FILLER_42_97
*1225 FILLER_43_105
*1226 FILLER_43_111
*1227 FILLER_43_113
*1228 FILLER_43_125
*1229 FILLER_43_137
*1230 FILLER_43_149
*1231 FILLER_43_15
*1232 FILLER_43_161
*1233 FILLER_43_167
*1234 FILLER_43_169
*1235 FILLER_43_181
*1236 FILLER_43_193
*1237 FILLER_43_205
*1238 FILLER_43_217
*1239 FILLER_43_223
*1240 FILLER_43_225
*1241 FILLER_43_237
*1242 FILLER_43_249
*1243 FILLER_43_261
*1244 FILLER_43_27
*1245 FILLER_43_273
*1246 FILLER_43_279
*1247 FILLER_43_281
*1248 FILLER_43_293
*1249 FILLER_43_3
*1250 FILLER_43_39
*1251 FILLER_43_51
*1252 FILLER_43_55
*1253 FILLER_43_57
*1254 FILLER_43_69
*1255 FILLER_43_81
*1256 FILLER_43_93
*1257 FILLER_44_109
*1258 FILLER_44_121
*1259 FILLER_44_133
*1260 FILLER_44_139
*1261 FILLER_44_141
*1262 FILLER_44_15
*1263 FILLER_44_153
*1264 FILLER_44_165
*1265 FILLER_44_177
*1266 FILLER_44_189
*1267 FILLER_44_195
*1268 FILLER_44_197
*1269 FILLER_44_209
*1270 FILLER_44_221
*1271 FILLER_44_233
*1272 FILLER_44_245
*1273 FILLER_44_251
*1274 FILLER_44_253
*1275 FILLER_44_265
*1276 FILLER_44_27
*1277 FILLER_44_277
*1278 FILLER_44_289
*1279 FILLER_44_29
*1280 FILLER_44_297
*1281 FILLER_44_3
*1282 FILLER_44_41
*1283 FILLER_44_53
*1284 FILLER_44_65
*1285 FILLER_44_77
*1286 FILLER_44_83
*1287 FILLER_44_85
*1288 FILLER_44_97
*1289 FILLER_45_105
*1290 FILLER_45_111
*1291 FILLER_45_113
*1292 FILLER_45_125
*1293 FILLER_45_137
*1294 FILLER_45_149
*1295 FILLER_45_15
*1296 FILLER_45_161
*1297 FILLER_45_167
*1298 FILLER_45_169
*1299 FILLER_45_181
*1300 FILLER_45_193
*1301 FILLER_45_205
*1302 FILLER_45_217
*1303 FILLER_45_223
*1304 FILLER_45_225
*1305 FILLER_45_237
*1306 FILLER_45_249
*1307 FILLER_45_261
*1308 FILLER_45_27
*1309 FILLER_45_273
*1310 FILLER_45_279
*1311 FILLER_45_281
*1312 FILLER_45_293
*1313 FILLER_45_3
*1314 FILLER_45_39
*1315 FILLER_45_51
*1316 FILLER_45_55
*1317 FILLER_45_57
*1318 FILLER_45_69
*1319 FILLER_45_81
*1320 FILLER_45_93
*1321 FILLER_46_109
*1322 FILLER_46_121
*1323 FILLER_46_133
*1324 FILLER_46_139
*1325 FILLER_46_141
*1326 FILLER_46_15
*1327 FILLER_46_153
*1328 FILLER_46_165
*1329 FILLER_46_177
*1330 FILLER_46_189
*1331 FILLER_46_195
*1332 FILLER_46_197
*1333 FILLER_46_209
*1334 FILLER_46_221
*1335 FILLER_46_233
*1336 FILLER_46_245
*1337 FILLER_46_251
*1338 FILLER_46_253
*1339 FILLER_46_265
*1340 FILLER_46_27
*1341 FILLER_46_277
*1342 FILLER_46_289
*1343 FILLER_46_29
*1344 FILLER_46_297
*1345 FILLER_46_3
*1346 FILLER_46_41
*1347 FILLER_46_53
*1348 FILLER_46_65
*1349 FILLER_46_77
*1350 FILLER_46_83
*1351 FILLER_46_85
*1352 FILLER_46_97
*1353 FILLER_47_105
*1354 FILLER_47_111
*1355 FILLER_47_113
*1356 FILLER_47_125
*1357 FILLER_47_137
*1358 FILLER_47_149
*1359 FILLER_47_15
*1360 FILLER_47_161
*1361 FILLER_47_167
*1362 FILLER_47_169
*1363 FILLER_47_181
*1364 FILLER_47_193
*1365 FILLER_47_205
*1366 FILLER_47_217
*1367 FILLER_47_223
*1368 FILLER_47_225
*1369 FILLER_47_237
*1370 FILLER_47_249
*1371 FILLER_47_261
*1372 FILLER_47_27
*1373 FILLER_47_273
*1374 FILLER_47_279
*1375 FILLER_47_281
*1376 FILLER_47_293
*1377 FILLER_47_3
*1378 FILLER_47_39
*1379 FILLER_47_51
*1380 FILLER_47_55
*1381 FILLER_47_57
*1382 FILLER_47_69
*1383 FILLER_47_81
*1384 FILLER_47_93
*1385 FILLER_48_109
*1386 FILLER_48_121
*1387 FILLER_48_133
*1388 FILLER_48_139
*1389 FILLER_48_141
*1390 FILLER_48_15
*1391 FILLER_48_153
*1392 FILLER_48_165
*1393 FILLER_48_177
*1394 FILLER_48_189
*1395 FILLER_48_195
*1396 FILLER_48_197
*1397 FILLER_48_209
*1398 FILLER_48_221
*1399 FILLER_48_233
*1400 FILLER_48_245
*1401 FILLER_48_251
*1402 FILLER_48_253
*1403 FILLER_48_265
*1404 FILLER_48_27
*1405 FILLER_48_277
*1406 FILLER_48_289
*1407 FILLER_48_29
*1408 FILLER_48_297
*1409 FILLER_48_3
*1410 FILLER_48_41
*1411 FILLER_48_53
*1412 FILLER_48_65
*1413 FILLER_48_77
*1414 FILLER_48_83
*1415 FILLER_48_85
*1416 FILLER_48_97
*1417 FILLER_49_105
*1418 FILLER_49_111
*1419 FILLER_49_113
*1420 FILLER_49_125
*1421 FILLER_49_137
*1422 FILLER_49_149
*1423 FILLER_49_15
*1424 FILLER_49_161
*1425 FILLER_49_167
*1426 FILLER_49_169
*1427 FILLER_49_181
*1428 FILLER_49_193
*1429 FILLER_49_205
*1430 FILLER_49_217
*1431 FILLER_49_223
*1432 FILLER_49_225
*1433 FILLER_49_237
*1434 FILLER_49_249
*1435 FILLER_49_261
*1436 FILLER_49_27
*1437 FILLER_49_273
*1438 FILLER_49_279
*1439 FILLER_49_281
*1440 FILLER_49_293
*1441 FILLER_49_3
*1442 FILLER_49_39
*1443 FILLER_49_51
*1444 FILLER_49_55
*1445 FILLER_49_57
*1446 FILLER_49_69
*1447 FILLER_49_81
*1448 FILLER_49_93
*1449 FILLER_4_109
*1450 FILLER_4_121
*1451 FILLER_4_133
*1452 FILLER_4_139
*1453 FILLER_4_141
*1454 FILLER_4_15
*1455 FILLER_4_153
*1456 FILLER_4_165
*1457 FILLER_4_177
*1458 FILLER_4_189
*1459 FILLER_4_195
*1460 FILLER_4_197
*1461 FILLER_4_209
*1462 FILLER_4_221
*1463 FILLER_4_233
*1464 FILLER_4_245
*1465 FILLER_4_251
*1466 FILLER_4_253
*1467 FILLER_4_265
*1468 FILLER_4_27
*1469 FILLER_4_277
*1470 FILLER_4_289
*1471 FILLER_4_29
*1472 FILLER_4_297
*1473 FILLER_4_3
*1474 FILLER_4_41
*1475 FILLER_4_53
*1476 FILLER_4_65
*1477 FILLER_4_77
*1478 FILLER_4_83
*1479 FILLER_4_85
*1480 FILLER_4_97
*1481 FILLER_50_109
*1482 FILLER_50_121
*1483 FILLER_50_133
*1484 FILLER_50_139
*1485 FILLER_50_141
*1486 FILLER_50_15
*1487 FILLER_50_153
*1488 FILLER_50_165
*1489 FILLER_50_177
*1490 FILLER_50_189
*1491 FILLER_50_195
*1492 FILLER_50_197
*1493 FILLER_50_209
*1494 FILLER_50_221
*1495 FILLER_50_233
*1496 FILLER_50_245
*1497 FILLER_50_251
*1498 FILLER_50_253
*1499 FILLER_50_265
*1500 FILLER_50_27
*1501 FILLER_50_277
*1502 FILLER_50_289
*1503 FILLER_50_29
*1504 FILLER_50_297
*1505 FILLER_50_3
*1506 FILLER_50_41
*1507 FILLER_50_53
*1508 FILLER_50_65
*1509 FILLER_50_77
*1510 FILLER_50_83
*1511 FILLER_50_85
*1512 FILLER_50_97
*1513 FILLER_51_105
*1514 FILLER_51_111
*1515 FILLER_51_113
*1516 FILLER_51_125
*1517 FILLER_51_137
*1518 FILLER_51_149
*1519 FILLER_51_15
*1520 FILLER_51_161
*1521 FILLER_51_167
*1522 FILLER_51_169
*1523 FILLER_51_181
*1524 FILLER_51_193
*1525 FILLER_51_205
*1526 FILLER_51_217
*1527 FILLER_51_223
*1528 FILLER_51_225
*1529 FILLER_51_237
*1530 FILLER_51_249
*1531 FILLER_51_261
*1532 FILLER_51_27
*1533 FILLER_51_273
*1534 FILLER_51_279
*1535 FILLER_51_281
*1536 FILLER_51_293
*1537 FILLER_51_3
*1538 FILLER_51_39
*1539 FILLER_51_51
*1540 FILLER_51_55
*1541 FILLER_51_57
*1542 FILLER_51_69
*1543 FILLER_51_81
*1544 FILLER_51_93
*1545 FILLER_52_109
*1546 FILLER_52_121
*1547 FILLER_52_133
*1548 FILLER_52_139
*1549 FILLER_52_141
*1550 FILLER_52_15
*1551 FILLER_52_153
*1552 FILLER_52_165
*1553 FILLER_52_177
*1554 FILLER_52_189
*1555 FILLER_52_195
*1556 FILLER_52_197
*1557 FILLER_52_209
*1558 FILLER_52_221
*1559 FILLER_52_233
*1560 FILLER_52_245
*1561 FILLER_52_251
*1562 FILLER_52_253
*1563 FILLER_52_265
*1564 FILLER_52_27
*1565 FILLER_52_277
*1566 FILLER_52_289
*1567 FILLER_52_29
*1568 FILLER_52_297
*1569 FILLER_52_3
*1570 FILLER_52_41
*1571 FILLER_52_53
*1572 FILLER_52_65
*1573 FILLER_52_77
*1574 FILLER_52_83
*1575 FILLER_52_85
*1576 FILLER_52_97
*1577 FILLER_53_105
*1578 FILLER_53_111
*1579 FILLER_53_113
*1580 FILLER_53_125
*1581 FILLER_53_137
*1582 FILLER_53_149
*1583 FILLER_53_15
*1584 FILLER_53_161
*1585 FILLER_53_167