*SPEF "ieee 1481-1999"
*DESIGN "user_module_358370685977079809"
*DATE "11:11:11 Fri 11 11, 1111"
*VENDOR "OpenRCX"
*PROGRAM "Parallel Extraction"
*VERSION "1.0"
*DESIGN_FLOW "NAME_SCOPE LOCAL" "PIN_CAP NONE"
*DIVIDER /
*DELIMITER :
*BUS_DELIMITER []
*T_UNIT 1 NS
*C_UNIT 1 PF
*R_UNIT 1 OHM
*L_UNIT 1 HENRY

*NAME_MAP
*1 io_in[0]
*2 io_in[1]
*3 io_in[2]
*4 io_in[3]
*5 io_in[4]
*6 io_in[5]
*7 io_in[6]
*8 io_in[7]
*9 io_out[0]
*10 io_out[1]
*11 io_out[2]
*12 io_out[3]
*13 io_out[4]
*14 io_out[5]
*15 io_out[6]
*16 io_out[7]
*19 _000_
*20 _001_
*21 _002_
*22 _003_
*23 _004_
*24 _005_
*25 _006_
*26 _007_
*27 _008_
*28 _009_
*29 _010_
*30 _011_
*31 _012_
*32 _013_
*33 _014_
*34 _015_
*35 _016_
*36 _017_
*37 _018_
*38 _019_
*39 _020_
*40 _021_
*41 _022_
*42 _023_
*43 _024_
*44 _025_
*45 _026_
*46 _027_
*47 _028_
*48 _029_
*49 _030_
*50 _031_
*51 _032_
*52 _033_
*53 _034_
*54 _035_
*55 _036_
*56 _037_
*57 _038_
*58 _039_
*59 _040_
*60 _041_
*61 _042_
*62 _043_
*63 _044_
*64 _045_
*65 _046_
*66 _047_
*67 _048_
*68 _049_
*69 _050_
*70 _051_
*71 _052_
*72 _053_
*73 _054_
*74 _055_
*75 _056_
*76 _057_
*77 _058_
*78 _059_
*79 _060_
*80 _061_
*81 _062_
*82 _063_
*83 _064_
*84 _065_
*85 _066_
*86 _067_
*87 _068_
*88 _069_
*89 _070_
*90 _071_
*91 _072_
*92 _073_
*93 clknet_0__014_
*94 clknet_0_io_in[0]
*95 clknet_1_0__leaf__014_
*96 clknet_1_0__leaf_io_in[0]
*97 clknet_1_1__leaf__014_
*98 clknet_1_1__leaf_io_in[0]
*99 flop1\.q
*100 flop10\.d
*101 flop10\.q
*102 flop11\.d
*103 flop11\.q
*104 flop12\.d
*105 flop12\.q
*106 flop13\.d
*107 flop13\.q
*108 flop14\.d
*109 flop14\.q
*110 flop15\.d
*111 flop15\.q
*112 flop16\.d
*113 flop16\.q
*114 flop17\.d
*115 flop17\.q
*116 flop18\.q
*117 flop19\.q
*118 flop20\.q
*119 flop21\.q
*120 flop9\.q
*121 mux1\.out
*122 mux10\.out
*123 mux13\.out
*124 mux16\.out
*125 mux20\.out
*126 mux23\.out
*127 mux6\.out
*128 mux7\.out
*129 net1
*130 net10
*131 net2
*132 net3
*133 net4
*134 net5
*135 net6
*136 net7
*137 net8
*138 net9
*139 FILLER_0_109
*140 FILLER_0_113
*141 FILLER_0_125
*142 FILLER_0_137
*143 FILLER_0_141
*144 FILLER_0_15
*145 FILLER_0_153
*146 FILLER_0_165
*147 FILLER_0_169
*148 FILLER_0_181
*149 FILLER_0_193
*150 FILLER_0_197
*151 FILLER_0_209
*152 FILLER_0_221
*153 FILLER_0_225
*154 FILLER_0_237
*155 FILLER_0_249
*156 FILLER_0_253
*157 FILLER_0_265
*158 FILLER_0_27
*159 FILLER_0_277
*160 FILLER_0_281
*161 FILLER_0_29
*162 FILLER_0_293
*163 FILLER_0_3
*164 FILLER_0_41
*165 FILLER_0_53
*166 FILLER_0_57
*167 FILLER_0_69
*168 FILLER_0_81
*169 FILLER_0_85
*170 FILLER_0_97
*171 FILLER_10_109
*172 FILLER_10_121
*173 FILLER_10_133
*174 FILLER_10_139
*175 FILLER_10_141
*176 FILLER_10_15
*177 FILLER_10_153
*178 FILLER_10_165
*179 FILLER_10_177
*180 FILLER_10_189
*181 FILLER_10_195
*182 FILLER_10_197
*183 FILLER_10_209
*184 FILLER_10_221
*185 FILLER_10_233
*186 FILLER_10_245
*187 FILLER_10_251
*188 FILLER_10_253
*189 FILLER_10_265
*190 FILLER_10_27
*191 FILLER_10_277
*192 FILLER_10_289
*193 FILLER_10_29
*194 FILLER_10_297
*195 FILLER_10_3
*196 FILLER_10_41
*197 FILLER_10_53
*198 FILLER_10_65
*199 FILLER_10_77
*200 FILLER_10_83
*201 FILLER_10_85
*202 FILLER_10_97
*203 FILLER_11_105
*204 FILLER_11_111
*205 FILLER_11_113
*206 FILLER_11_125
*207 FILLER_11_137
*208 FILLER_11_149
*209 FILLER_11_161
*210 FILLER_11_167
*211 FILLER_11_169
*212 FILLER_11_181
*213 FILLER_11_193
*214 FILLER_11_20
*215 FILLER_11_205
*216 FILLER_11_217
*217 FILLER_11_223
*218 FILLER_11_225
*219 FILLER_11_237
*220 FILLER_11_249
*221 FILLER_11_261
*222 FILLER_11_273
*223 FILLER_11_279
*224 FILLER_11_281
*225 FILLER_11_293
*226 FILLER_11_3
*227 FILLER_11_41
*228 FILLER_11_53
*229 FILLER_11_57
*230 FILLER_11_69
*231 FILLER_11_8
*232 FILLER_11_81
*233 FILLER_11_93
*234 FILLER_12_109
*235 FILLER_12_121
*236 FILLER_12_133
*237 FILLER_12_139
*238 FILLER_12_141
*239 FILLER_12_153
*240 FILLER_12_165
*241 FILLER_12_177
*242 FILLER_12_189
*243 FILLER_12_195
*244 FILLER_12_197
*245 FILLER_12_209
*246 FILLER_12_221
*247 FILLER_12_233
*248 FILLER_12_245
*249 FILLER_12_251
*250 FILLER_12_253
*251 FILLER_12_26
*252 FILLER_12_265
*253 FILLER_12_277
*254 FILLER_12_289
*255 FILLER_12_29
*256 FILLER_12_297
*257 FILLER_12_3
*258 FILLER_12_41
*259 FILLER_12_53
*260 FILLER_12_65
*261 FILLER_12_77
*262 FILLER_12_83
*263 FILLER_12_85
*264 FILLER_12_9
*265 FILLER_12_97
*266 FILLER_13_105
*267 FILLER_13_111
*268 FILLER_13_113
*269 FILLER_13_125
*270 FILLER_13_137
*271 FILLER_13_149
*272 FILLER_13_161
*273 FILLER_13_167
*274 FILLER_13_169
*275 FILLER_13_181
*276 FILLER_13_193
*277 FILLER_13_205
*278 FILLER_13_217
*279 FILLER_13_223
*280 FILLER_13_225
*281 FILLER_13_237
*282 FILLER_13_249
*283 FILLER_13_261
*284 FILLER_13_273
*285 FILLER_13_279
*286 FILLER_13_281
*287 FILLER_13_293
*288 FILLER_13_3
*289 FILLER_13_33
*290 FILLER_13_45
*291 FILLER_13_53
*292 FILLER_13_57
*293 FILLER_13_69
*294 FILLER_13_81
*295 FILLER_13_9
*296 FILLER_13_93
*297 FILLER_14_109
*298 FILLER_14_121
*299 FILLER_14_133
*300 FILLER_14_139
*301 FILLER_14_141
*302 FILLER_14_153
*303 FILLER_14_165
*304 FILLER_14_177
*305 FILLER_14_189
*306 FILLER_14_195
*307 FILLER_14_197
*308 FILLER_14_209
*309 FILLER_14_21
*310 FILLER_14_221
*311 FILLER_14_233
*312 FILLER_14_245
*313 FILLER_14_251
*314 FILLER_14_253
*315 FILLER_14_265
*316 FILLER_14_27
*317 FILLER_14_277
*318 FILLER_14_289
*319 FILLER_14_29
*320 FILLER_14_297
*321 FILLER_14_3
*322 FILLER_14_35
*323 FILLER_14_49
*324 FILLER_14_61
*325 FILLER_14_73
*326 FILLER_14_81
*327 FILLER_14_85
*328 FILLER_14_97
*329 FILLER_15_105
*330 FILLER_15_111
*331 FILLER_15_113
*332 FILLER_15_125
*333 FILLER_15_137
*334 FILLER_15_149
*335 FILLER_15_15
*336 FILLER_15_161
*337 FILLER_15_167
*338 FILLER_15_169
*339 FILLER_15_181
*340 FILLER_15_193
*341 FILLER_15_205
*342 FILLER_15_217
*343 FILLER_15_223
*344 FILLER_15_225
*345 FILLER_15_237
*346 FILLER_15_249
*347 FILLER_15_261
*348 FILLER_15_27
*349 FILLER_15_273
*350 FILLER_15_279
*351 FILLER_15_281
*352 FILLER_15_293
*353 FILLER_15_3
*354 FILLER_15_31
*355 FILLER_15_48
*356 FILLER_15_57
*357 FILLER_15_69
*358 FILLER_15_81
*359 FILLER_15_93
*360 FILLER_16_109
*361 FILLER_16_12
*362 FILLER_16_121
*363 FILLER_16_133
*364 FILLER_16_139
*365 FILLER_16_141
*366 FILLER_16_153
*367 FILLER_16_165
*368 FILLER_16_177
*369 FILLER_16_189
*370 FILLER_16_195
*371 FILLER_16_197
*372 FILLER_16_20
*373 FILLER_16_209
*374 FILLER_16_221
*375 FILLER_16_233
*376 FILLER_16_245
*377 FILLER_16_251
*378 FILLER_16_253
*379 FILLER_16_265
*380 FILLER_16_277
*381 FILLER_16_289
*382 FILLER_16_29
*383 FILLER_16_297
*384 FILLER_16_3
*385 FILLER_16_41
*386 FILLER_16_61
*387 FILLER_16_73
*388 FILLER_16_8
*389 FILLER_16_81
*390 FILLER_16_85
*391 FILLER_16_97
*392 FILLER_17_105
*393 FILLER_17_111
*394 FILLER_17_113
*395 FILLER_17_125
*396 FILLER_17_137
*397 FILLER_17_149
*398 FILLER_17_15
*399 FILLER_17_161
*400 FILLER_17_167
*401 FILLER_17_169
*402 FILLER_17_181
*403 FILLER_17_193
*404 FILLER_17_205
*405 FILLER_17_217
*406 FILLER_17_223
*407 FILLER_17_225
*408 FILLER_17_237
*409 FILLER_17_249
*410 FILLER_17_261
*411 FILLER_17_273
*412 FILLER_17_279
*413 FILLER_17_281
*414 FILLER_17_293
*415 FILLER_17_3
*416 FILLER_17_33
*417 FILLER_17_45
*418 FILLER_17_53
*419 FILLER_17_57
*420 FILLER_17_69
*421 FILLER_17_81
*422 FILLER_17_93
*423 FILLER_18_109
*424 FILLER_18_12
*425 FILLER_18_121
*426 FILLER_18_133
*427 FILLER_18_139
*428 FILLER_18_141
*429 FILLER_18_153
*430 FILLER_18_165
*431 FILLER_18_177
*432 FILLER_18_189
*433 FILLER_18_195
*434 FILLER_18_197
*435 FILLER_18_209
*436 FILLER_18_21
*437 FILLER_18_221
*438 FILLER_18_233
*439 FILLER_18_245
*440 FILLER_18_251
*441 FILLER_18_253
*442 FILLER_18_265
*443 FILLER_18_27
*444 FILLER_18_277
*445 FILLER_18_289
*446 FILLER_18_29
*447 FILLER_18_297
*448 FILLER_18_3
*449 FILLER_18_47
*450 FILLER_18_59
*451 FILLER_18_71
*452 FILLER_18_83
*453 FILLER_18_85
*454 FILLER_18_97
*455 FILLER_19_105
*456 FILLER_19_111
*457 FILLER_19_113
*458 FILLER_19_125
*459 FILLER_19_137
*460 FILLER_19_14
*461 FILLER_19_149
*462 FILLER_19_161
*463 FILLER_19_167
*464 FILLER_19_169
*465 FILLER_19_181
*466 FILLER_19_193
*467 FILLER_19_205
*468 FILLER_19_217
*469 FILLER_19_223
*470 FILLER_19_225
*471 FILLER_19_237
*472 FILLER_19_24
*473 FILLER_19_249
*474 FILLER_19_261
*475 FILLER_19_273
*476 FILLER_19_279
*477 FILLER_19_281
*478 FILLER_19_293
*479 FILLER_19_3
*480 FILLER_19_36
*481 FILLER_19_41
*482 FILLER_19_52
*483 FILLER_19_57
*484 FILLER_19_69
*485 FILLER_19_81
*486 FILLER_19_9
*487 FILLER_19_93
*488 FILLER_1_105
*489 FILLER_1_111
*490 FILLER_1_113
*491 FILLER_1_125
*492 FILLER_1_137
*493 FILLER_1_149
*494 FILLER_1_15
*495 FILLER_1_161
*496 FILLER_1_167
*497 FILLER_1_169
*498 FILLER_1_181
*499 FILLER_1_193
*500 FILLER_1_205
*501 FILLER_1_217
*502 FILLER_1_223
*503 FILLER_1_225
*504 FILLER_1_237
*505 FILLER_1_249
*506 FILLER_1_261
*507 FILLER_1_27
*508 FILLER_1_273
*509 FILLER_1_279
*510 FILLER_1_281
*511 FILLER_1_293
*512 FILLER_1_3
*513 FILLER_1_39
*514 FILLER_1_51
*515 FILLER_1_55
*516 FILLER_1_57
*517 FILLER_1_69
*518 FILLER_1_81
*519 FILLER_1_93
*520 FILLER_20_109
*521 FILLER_20_121
*522 FILLER_20_133
*523 FILLER_20_139
*524 FILLER_20_141
*525 FILLER_20_15
*526 FILLER_20_153
*527 FILLER_20_165
*528 FILLER_20_177
*529 FILLER_20_189
*530 FILLER_20_195
*531 FILLER_20_197
*532 FILLER_20_209
*533 FILLER_20_221
*534 FILLER_20_233
*535 FILLER_20_245
*536 FILLER_20_251
*537 FILLER_20_253
*538 FILLER_20_265
*539 FILLER_20_27
*540 FILLER_20_277
*541 FILLER_20_289
*542 FILLER_20_29
*543 FILLER_20_297
*544 FILLER_20_3
*545 FILLER_20_35
*546 FILLER_20_43
*547 FILLER_20_55
*548 FILLER_20_79
*549 FILLER_20_83
*550 FILLER_20_85
*551 FILLER_20_97
*552 FILLER_21_102
*553 FILLER_21_110
*554 FILLER_21_113
*555 FILLER_21_125
*556 FILLER_21_137
*557 FILLER_21_149
*558 FILLER_21_15
*559 FILLER_21_161
*560 FILLER_21_167
*561 FILLER_21_169
*562 FILLER_21_181
*563 FILLER_21_193
*564 FILLER_21_205
*565 FILLER_21_217
*566 FILLER_21_223
*567 FILLER_21_225
*568 FILLER_21_237
*569 FILLER_21_249
*570 FILLER_21_261
*571 FILLER_21_27
*572 FILLER_21_273
*573 FILLER_21_279
*574 FILLER_21_281
*575 FILLER_21_293
*576 FILLER_21_3
*577 FILLER_21_36
*578 FILLER_21_46
*579 FILLER_21_53
*580 FILLER_21_57
*581 FILLER_21_61
*582 FILLER_21_78
*583 FILLER_21_90
*584 FILLER_22_109
*585 FILLER_22_12
*586 FILLER_22_121
*587 FILLER_22_133
*588 FILLER_22_139
*589 FILLER_22_141
*590 FILLER_22_153
*591 FILLER_22_165
*592 FILLER_22_177
*593 FILLER_22_189
*594 FILLER_22_195
*595 FILLER_22_197
*596 FILLER_22_209
*597 FILLER_22_221
*598 FILLER_22_23
*599 FILLER_22_233
*600 FILLER_22_245
*601 FILLER_22_251
*602 FILLER_22_253
*603 FILLER_22_265
*604 FILLER_22_27
*605 FILLER_22_277
*606 FILLER_22_289
*607 FILLER_22_29
*608 FILLER_22_297
*609 FILLER_22_3
*610 FILLER_22_34
*611 FILLER_22_41
*612 FILLER_22_48
*613 FILLER_22_60
*614 FILLER_22_72
*615 FILLER_22_85
*616 FILLER_22_97
*617 FILLER_23_109
*618 FILLER_23_113
*619 FILLER_23_125
*620 FILLER_23_137
*621 FILLER_23_149
*622 FILLER_23_161
*623 FILLER_23_167
*624 FILLER_23_169
*625 FILLER_23_181
*626 FILLER_23_193
*627 FILLER_23_205
*628 FILLER_23_217
*629 FILLER_23_223
*630 FILLER_23_225
*631 FILLER_23_237
*632 FILLER_23_24
*633 FILLER_23_249
*634 FILLER_23_261
*635 FILLER_23_273
*636 FILLER_23_279
*637 FILLER_23_281
*638 FILLER_23_293
*639 FILLER_23_3
*640 FILLER_23_32
*641 FILLER_23_40
*642 FILLER_23_44
*643 FILLER_23_48
*644 FILLER_23_52
*645 FILLER_23_57
*646 FILLER_23_7
*647 FILLER_23_85
*648 FILLER_23_97
*649 FILLER_24_109
*650 FILLER_24_121
*651 FILLER_24_133
*652 FILLER_24_139
*653 FILLER_24_141
*654 FILLER_24_15
*655 FILLER_24_153
*656 FILLER_24_165
*657 FILLER_24_177
*658 FILLER_24_189
*659 FILLER_24_195
*660 FILLER_24_197
*661 FILLER_24_209
*662 FILLER_24_221
*663 FILLER_24_233
*664 FILLER_24_245
*665 FILLER_24_251
*666 FILLER_24_253
*667 FILLER_24_26
*668 FILLER_24_265
*669 FILLER_24_277
*670 FILLER_24_289
*671 FILLER_24_29
*672 FILLER_24_297
*673 FILLER_24_3
*674 FILLER_24_33
*675 FILLER_24_41
*676 FILLER_24_65
*677 FILLER_24_7
*678 FILLER_24_76
*679 FILLER_24_85
*680 FILLER_24_97
*681 FILLER_25_110
*682 FILLER_25_113
*683 FILLER_25_125
*684 FILLER_25_137
*685 FILLER_25_149
*686 FILLER_25_16
*687 FILLER_25_161
*688 FILLER_25_167
*689 FILLER_25_169
*690 FILLER_25_181
*691 FILLER_25_193
*692 FILLER_25_20
*693 FILLER_25_205
*694 FILLER_25_217
*695 FILLER_25_223
*696 FILLER_25_225
*697 FILLER_25_237
*698 FILLER_25_249
*699 FILLER_25_261
*700 FILLER_25_273
*701 FILLER_25_279
*702 FILLER_25_28
*703 FILLER_25_281
*704 FILLER_25_293
*705 FILLER_25_3
*706 FILLER_25_34
*707 FILLER_25_43
*708 FILLER_25_47
*709 FILLER_25_54
*710 FILLER_25_57
*711 FILLER_25_66
*712 FILLER_25_76
*713 FILLER_25_86
*714 FILLER_25_9
*715 FILLER_25_98
*716 FILLER_26_109
*717 FILLER_26_121
*718 FILLER_26_13
*719 FILLER_26_133
*720 FILLER_26_139
*721 FILLER_26_141
*722 FILLER_26_153
*723 FILLER_26_165
*724 FILLER_26_177
*725 FILLER_26_189
*726 FILLER_26_195
*727 FILLER_26_197
*728 FILLER_26_209
*729 FILLER_26_221
*730 FILLER_26_233
*731 FILLER_26_245
*732 FILLER_26_25
*733 FILLER_26_251
*734 FILLER_26_253
*735 FILLER_26_265
*736 FILLER_26_277
*737 FILLER_26_289
*738 FILLER_26_29
*739 FILLER_26_297
*740 FILLER_26_3
*741 FILLER_26_34
*742 FILLER_26_45
*743 FILLER_26_77
*744 FILLER_26_83
*745 FILLER_26_85
*746 FILLER_26_97
*747 FILLER_27_102
*748 FILLER_27_110
*749 FILLER_27_113
*750 FILLER_27_125
*751 FILLER_27_13
*752 FILLER_27_137
*753 FILLER_27_149
*754 FILLER_27_161
*755 FILLER_27_167
*756 FILLER_27_169
*757 FILLER_27_181
*758 FILLER_27_193
*759 FILLER_27_205
*760 FILLER_27_21
*761 FILLER_27_217
*762 FILLER_27_223
*763 FILLER_27_225
*764 FILLER_27_237
*765 FILLER_27_249
*766 FILLER_27_261
*767 FILLER_27_273
*768 FILLER_27_279
*769 FILLER_27_28
*770 FILLER_27_281
*771 FILLER_27_293
*772 FILLER_27_3
*773 FILLER_27_32
*774 FILLER_27_40
*775 FILLER_27_54
*776 FILLER_27_57
*777 FILLER_27_68
*778 FILLER_27_74
*779 FILLER_27_78
*780 FILLER_27_90
*781 FILLER_28_109
*782 FILLER_28_121
*783 FILLER_28_133
*784 FILLER_28_139
*785 FILLER_28_14
*786 FILLER_28_141
*787 FILLER_28_153
*788 FILLER_28_165
*789 FILLER_28_177
*790 FILLER_28_189
*791 FILLER_28_195
*792 FILLER_28_197
*793 FILLER_28_209
*794 FILLER_28_221
*795 FILLER_28_23
*796 FILLER_28_233
*797 FILLER_28_245
*798 FILLER_28_251
*799 FILLER_28_253
*800 FILLER_28_265
*801 FILLER_28_27
*802 FILLER_28_277
*803 FILLER_28_289
*804 FILLER_28_29
*805 FILLER_28_297
*806 FILLER_28_3
*807 FILLER_28_35
*808 FILLER_28_46
*809 FILLER_28_58
*810 FILLER_28_64
*811 FILLER_28_76
*812 FILLER_28_85
*813 FILLER_28_97
*814 FILLER_29_108
*815 FILLER_29_113
*816 FILLER_29_125
*817 FILLER_29_137
*818 FILLER_29_149
*819 FILLER_29_161
*820 FILLER_29_167
*821 FILLER_29_169
*822 FILLER_29_181
*823 FILLER_29_193
*824 FILLER_29_205
*825 FILLER_29_21
*826 FILLER_29_217
*827 FILLER_29_223
*828 FILLER_29_225
*829 FILLER_29_237
*830 FILLER_29_249
*831 FILLER_29_261
*832 FILLER_29_273
*833 FILLER_29_279
*834 FILLER_29_281
*835 FILLER_29_29
*836 FILLER_29_293
*837 FILLER_29_3
*838 FILLER_29_38
*839 FILLER_29_46
*840 FILLER_29_54
*841 FILLER_29_57
*842 FILLER_29_72
*843 FILLER_29_84
*844 FILLER_29_96
*845 FILLER_2_109
*846 FILLER_2_121
*847 FILLER_2_133
*848 FILLER_2_139
*849 FILLER_2_141
*850 FILLER_2_15
*851 FILLER_2_153
*852 FILLER_2_165
*853 FILLER_2_177
*854 FILLER_2_189
*855 FILLER_2_195
*856 FILLER_2_197
*857 FILLER_2_209
*858 FILLER_2_221
*859 FILLER_2_233
*860 FILLER_2_245
*861 FILLER_2_251
*862 FILLER_2_253
*863 FILLER_2_265
*864 FILLER_2_27
*865 FILLER_2_277
*866 FILLER_2_289
*867 FILLER_2_29
*868 FILLER_2_297
*869 FILLER_2_3
*870 FILLER_2_41
*871 FILLER_2_53
*872 FILLER_2_65
*873 FILLER_2_77
*874 FILLER_2_83
*875 FILLER_2_85
*876 FILLER_2_97
*877 FILLER_30_109
*878 FILLER_30_121
*879 FILLER_30_133
*880 FILLER_30_139
*881 FILLER_30_141
*882 FILLER_30_153
*883 FILLER_30_165
*884 FILLER_30_177
*885 FILLER_30_189
*886 FILLER_30_195
*887 FILLER_30_197
*888 FILLER_30_209
*889 FILLER_30_221
*890 FILLER_30_233
*891 FILLER_30_245
*892 FILLER_30_25
*893 FILLER_30_251
*894 FILLER_30_253
*895 FILLER_30_265
*896 FILLER_30_277
*897 FILLER_30_289
*898 FILLER_30_29
*899 FILLER_30_297
*900 FILLER_30_3
*901 FILLER_30_47
*902 FILLER_30_58
*903 FILLER_30_69
*904 FILLER_30_78
*905 FILLER_30_85
*906 FILLER_30_97
*907 FILLER_31_111
*908 FILLER_31_113
*909 FILLER_31_12
*910 FILLER_31_125
*911 FILLER_31_137
*912 FILLER_31_149
*913 FILLER_31_161
*914 FILLER_31_167
*915 FILLER_31_169
*916 FILLER_31_181
*917 FILLER_31_193
*918 FILLER_31_205
*919 FILLER_31_217
*920 FILLER_31_223
*921 FILLER_31_225
*922 FILLER_31_237
*923 FILLER_31_249
*924 FILLER_31_261
*925 FILLER_31_273
*926 FILLER_31_279
*927 FILLER_31_281
*928 FILLER_31_293
*929 FILLER_31_3
*930 FILLER_31_36
*931 FILLER_31_50
*932 FILLER_31_57
*933 FILLER_31_64
*934 FILLER_31_7
*935 FILLER_31_70
*936 FILLER_31_87
*937 FILLER_31_99
*938 FILLER_32_109
*939 FILLER_32_121
*940 FILLER_32_133
*941 FILLER_32_139
*942 FILLER_32_141
*943 FILLER_32_153
*944 FILLER_32_165
*945 FILLER_32_177
*946 FILLER_32_189
*947 FILLER_32_195
*948 FILLER_32_197
*949 FILLER_32_209
*950 FILLER_32_221
*951 FILLER_32_233
*952 FILLER_32_245
*953 FILLER_32_251
*954 FILLER_32_253
*955 FILLER_32_26
*956 FILLER_32_265
*957 FILLER_32_277
*958 FILLER_32_289
*959 FILLER_32_29
*960 FILLER_32_297
*961 FILLER_32_3
*962 FILLER_32_33
*963 FILLER_32_50
*964 FILLER_32_62
*965 FILLER_32_74
*966 FILLER_32_82
*967 FILLER_32_85
*968 FILLER_32_9
*969 FILLER_32_97
*970 FILLER_33_11
*971 FILLER_33_110
*972 FILLER_33_113
*973 FILLER_33_125
*974 FILLER_33_137
*975 FILLER_33_149
*976 FILLER_33_161
*977 FILLER_33_167
*978 FILLER_33_169
*979 FILLER_33_181
*980 FILLER_33_193
*981 FILLER_33_205
*982 FILLER_33_217
*983 FILLER_33_223
*984 FILLER_33_225
*985 FILLER_33_237
*986 FILLER_33_249
*987 FILLER_33_261
*988 FILLER_33_273
*989 FILLER_33_279
*990 FILLER_33_281
*991 FILLER_33_293
*992 FILLER_33_3
*993 FILLER_33_33
*994 FILLER_33_43
*995 FILLER_33_51
*996 FILLER_33_55
*997 FILLER_33_57
*998 FILLER_33_62
*999 FILLER_33_74
*1000 FILLER_33_86
*1001 FILLER_33_98
*1002 FILLER_34_109
*1003 FILLER_34_121
*1004 FILLER_34_133
*1005 FILLER_34_139
*1006 FILLER_34_14
*1007 FILLER_34_141
*1008 FILLER_34_153
*1009 FILLER_34_165
*1010 FILLER_34_177
*1011 FILLER_34_189
*1012 FILLER_34_195
*1013 FILLER_34_197
*1014 FILLER_34_209
*1015 FILLER_34_21
*1016 FILLER_34_221
*1017 FILLER_34_233
*1018 FILLER_34_245
*1019 FILLER_34_251
*1020 FILLER_34_253
*1021 FILLER_34_265
*1022 FILLER_34_27
*1023 FILLER_34_277
*1024 FILLER_34_289
*1025 FILLER_34_29
*1026 FILLER_34_297
*1027 FILLER_34_3
*1028 FILLER_34_37
*1029 FILLER_34_48
*1030 FILLER_34_60
*1031 FILLER_34_72
*1032 FILLER_34_85
*1033 FILLER_34_97
*1034 FILLER_35_106
*1035 FILLER_35_113
*1036 FILLER_35_12
*1037 FILLER_35_125
*1038 FILLER_35_137
*1039 FILLER_35_149
*1040 FILLER_35_161
*1041 FILLER_35_167
*1042 FILLER_35_169
*1043 FILLER_35_181
*1044 FILLER_35_193
*1045 FILLER_35_20
*1046 FILLER_35_205
*1047 FILLER_35_217
*1048 FILLER_35_223
*1049 FILLER_35_225
*1050 FILLER_35_237
*1051 FILLER_35_249
*1052 FILLER_35_261
*1053 FILLER_35_27
*1054 FILLER_35_273
*1055 FILLER_35_279
*1056 FILLER_35_281
*1057 FILLER_35_293
*1058 FILLER_35_3
*1059 FILLER_35_36
*1060 FILLER_35_48
*1061 FILLER_35_57
*1062 FILLER_35_65
*1063 FILLER_35_82
*1064 FILLER_35_94
*1065 FILLER_36_109
*1066 FILLER_36_121
*1067 FILLER_36_133
*1068 FILLER_36_139
*1069 FILLER_36_141
*1070 FILLER_36_153
*1071 FILLER_36_165
*1072 FILLER_36_177
*1073 FILLER_36_189
*1074 FILLER_36_195
*1075 FILLER_36_197
*1076 FILLER_36_209
*1077 FILLER_36_221
*1078 FILLER_36_233
*1079 FILLER_36_245
*1080 FILLER_36_25
*1081 FILLER_36_251
*1082 FILLER_36_253
*1083 FILLER_36_265
*1084 FILLER_36_277
*1085 FILLER_36_289
*1086 FILLER_36_29
*1087 FILLER_36_297
*1088 FILLER_36_3
*1089 FILLER_36_48
*1090 FILLER_36_68
*1091 FILLER_36_80
*1092 FILLER_36_85
*1093 FILLER_36_97
*1094 FILLER_37_105
*1095 FILLER_37_111
*1096 FILLER_37_113
*1097 FILLER_37_125
*1098 FILLER_37_137
*1099 FILLER_37_149
*1100 FILLER_37_161
*1101 FILLER_37_167
*1102 FILLER_37_169
*1103 FILLER_37_181
*1104 FILLER_37_193
*1105 FILLER_37_205
*1106 FILLER_37_21
*1107 FILLER_37_217
*1108 FILLER_37_223
*1109 FILLER_37_225
*1110 FILLER_37_237
*1111 FILLER_37_249
*1112 FILLER_37_261
*1113 FILLER_37_273
*1114 FILLER_37_279
*1115 FILLER_37_281
*1116 FILLER_37_293
*1117 FILLER_37_3
*1118 FILLER_37_43
*1119 FILLER_37_55
*1120 FILLER_37_57
*1121 FILLER_37_69
*1122 FILLER_37_81
*1123 FILLER_37_9
*1124 FILLER_37_93
*1125 FILLER_38_109
*1126 FILLER_38_121
*1127 FILLER_38_133
*1128 FILLER_38_139
*1129 FILLER_38_141
*1130 FILLER_38_153
*1131 FILLER_38_165
*1132 FILLER_38_177
*1133 FILLER_38_189
*1134 FILLER_38_195
*1135 FILLER_38_197
*1136 FILLER_38_209
*1137 FILLER_38_221
*1138 FILLER_38_23
*1139 FILLER_38_233
*1140 FILLER_38_245
*1141 FILLER_38_251
*1142 FILLER_38_253
*1143 FILLER_38_265
*1144 FILLER_38_27
*1145 FILLER_38_277
*1146 FILLER_38_289
*1147 FILLER_38_29
*1148 FILLER_38_297
*1149 FILLER_38_3
*1150 FILLER_38_46
*1151 FILLER_38_66
*1152 FILLER_38_78
*1153 FILLER_38_85
*1154 FILLER_38_97
*1155 FILLER_39_105
*1156 FILLER_39_111
*1157 FILLER_39_113
*1158 FILLER_39_12
*1159 FILLER_39_125
*1160 FILLER_39_137
*1161 FILLER_39_149
*1162 FILLER_39_161
*1163 FILLER_39_167
*1164 FILLER_39_169
*1165 FILLER_39_181
*1166 FILLER_39_193
*1167 FILLER_39_205
*1168 FILLER_39_217
*1169 FILLER_39_223
*1170 FILLER_39_225
*1171 FILLER_39_237
*1172 FILLER_39_24
*1173 FILLER_39_249
*1174 FILLER_39_261
*1175 FILLER_39_273
*1176 FILLER_39_279
*1177 FILLER_39_281
*1178 FILLER_39_293
*1179 FILLER_39_3
*1180 FILLER_39_36
*1181 FILLER_39_48
*1182 FILLER_39_57
*1183 FILLER_39_69
*1184 FILLER_39_81
*1185 FILLER_39_93
*1186 FILLER_3_105
*1187 FILLER_3_111
*1188 FILLER_3_113
*1189 FILLER_3_125
*1190 FILLER_3_137
*1191 FILLER_3_149
*1192 FILLER_3_15
*1193 FILLER_3_161
*1194 FILLER_3_167
*1195 FILLER_3_169
*1196 FILLER_3_181
*1197 FILLER_3_193
*1198 FILLER_3_205
*1199 FILLER_3_217
*1200 FILLER_3_223
*1201 FILLER_3_225
*1202 FILLER_3_237
*1203 FILLER_3_249
*1204 FILLER_3_261
*1205 FILLER_3_27
*1206 FILLER_3_273
*1207 FILLER_3_279
*1208 FILLER_3_281
*1209 FILLER_3_293
*1210 FILLER_3_3
*1211 FILLER_3_39
*1212 FILLER_3_51
*1213 FILLER_3_55
*1214 FILLER_3_57
*1215 FILLER_3_69
*1216 FILLER_3_81
*1217 FILLER_3_93
*1218 FILLER_40_109
*1219 FILLER_40_121
*1220 FILLER_40_133
*1221 FILLER_40_139
*1222 FILLER_40_141
*1223 FILLER_40_15
*1224 FILLER_40_153
*1225 FILLER_40_165
*1226 FILLER_40_177
*1227 FILLER_40_189
*1228 FILLER_40_195
*1229 FILLER_40_197
*1230 FILLER_40_209
*1231 FILLER_40_221
*1232 FILLER_40_233
*1233 FILLER_40_245
*1234 FILLER_40_251
*1235 FILLER_40_253
*1236 FILLER_40_265
*1237 FILLER_40_27
*1238 FILLER_40_277
*1239 FILLER_40_289
*1240 FILLER_40_29
*1241 FILLER_40_297
*1242 FILLER_40_3
*1243 FILLER_40_41
*1244 FILLER_40_53
*1245 FILLER_40_65
*1246 FILLER_40_77
*1247 FILLER_40_83
*1248 FILLER_40_85
*1249 FILLER_40_97
*1250 FILLER_41_105
*1251 FILLER_41_111
*1252 FILLER_41_113
*1253 FILLER_41_125
*1254 FILLER_41_137
*1255 FILLER_41_149
*1256 FILLER_41_161
*1257 FILLER_41_167
*1258 FILLER_41_169
*1259 FILLER_41_181
*1260 FILLER_41_193
*1261 FILLER_41_205
*1262 FILLER_41_21
*1263 FILLER_41_217
*1264 FILLER_41_223
*1265 FILLER_41_225
*1266 FILLER_41_237
*1267 FILLER_41_249
*1268 FILLER_41_261
*1269 FILLER_41_273
*1270 FILLER_41_279
*1271 FILLER_41_281
*1272 FILLER_41_293
*1273 FILLER_41_3
*1274 FILLER_41_33
*1275 FILLER_41_45
*1276 FILLER_41_53
*1277 FILLER_41_57
*1278 FILLER_41_69
*1279 FILLER_41_81
*1280 FILLER_41_9
*1281 FILLER_41_93
*1282 FILLER_42_109
*1283 FILLER_42_121
*1284 FILLER_42_133
*1285 FILLER_42_139
*1286 FILLER_42_14
*1287 FILLER_42_141
*1288 FILLER_42_153
*1289 FILLER_42_165
*1290 FILLER_42_177
*1291 FILLER_42_189
*1292 FILLER_42_195
*1293 FILLER_42_197
*1294 FILLER_42_209
*1295 FILLER_42_221
*1296 FILLER_42_233
*1297 FILLER_42_245
*1298 FILLER_42_251
*1299 FILLER_42_253
*1300 FILLER_42_26
*1301 FILLER_42_265
*1302 FILLER_42_277
*1303 FILLER_42_289
*1304 FILLER_42_29
*1305 FILLER_42_297
*1306 FILLER_42_3
*1307 FILLER_42_41
*1308 FILLER_42_53
*1309 FILLER_42_65
*1310 FILLER_42_77
*1311 FILLER_42_83
*1312 FILLER_42_85
*1313 FILLER_42_97
*1314 FILLER_43_105
*1315 FILLER_43_111
*1316 FILLER_43_113
*1317 FILLER_43_125
*1318 FILLER_43_137
*1319 FILLER_43_149
*1320 FILLER_43_161
*1321 FILLER_43_167
*1322 FILLER_43_169
*1323 FILLER_43_181
*1324 FILLER_43_193
*1325 FILLER_43_205
*1326 FILLER_43_217
*1327 FILLER_43_223
*1328 FILLER_43_225
*1329 FILLER_43_237
*1330 FILLER_43_249
*1331 FILLER_43_261
*1332 FILLER_43_273
*1333 FILLER_43_279
*1334 FILLER_43_281
*1335 FILLER_43_293
*1336 FILLER_43_3
*1337 FILLER_43_31
*1338 FILLER_43_43
*1339 FILLER_43_55
*1340 FILLER_43_57
*1341 FILLER_43_69
*1342 FILLER_43_81
*1343 FILLER_43_93
*1344 FILLER_44_109
*1345 FILLER_44_12
*1346 FILLER_44_121
*1347 FILLER_44_133
*1348 FILLER_44_139
*1349 FILLER_44_141
*1350 FILLER_44_153
*1351 FILLER_44_165
*1352 FILLER_44_177
*1353 FILLER_44_189
*1354 FILLER_44_19
*1355 FILLER_44_195
*1356 FILLER_44_197
*1357 FILLER_44_209
*1358 FILLER_44_221
*1359 FILLER_44_233
*1360 FILLER_44_245
*1361 FILLER_44_251
*1362 FILLER_44_253
*1363 FILLER_44_265
*1364 FILLER_44_27
*1365 FILLER_44_277
*1366 FILLER_44_289
*1367 FILLER_44_29
*1368 FILLER_44_297
*1369 FILLER_44_3
*1370 FILLER_44_41
*1371 FILLER_44_53
*1372 FILLER_44_65
*1373 FILLER_44_77
*1374 FILLER_44_83
*1375 FILLER_44_85
*1376 FILLER_44_97
*1377 FILLER_45_105
*1378 FILLER_45_111
*1379 FILLER_45_113
*1380 FILLER_45_125
*1381 FILLER_45_137
*1382 FILLER_45_149
*1383 FILLER_45_15
*1384 FILLER_45_161
*1385 FILLER_45_167
*1386 FILLER_45_169
*1387 FILLER_45_181
*1388 FILLER_45_193
*1389 FILLER_45_205
*1390 FILLER_45_217
*1391 FILLER_45_223
*1392 FILLER_45_225
*1393 FILLER_45_237
*1394 FILLER_45_249
*1395 FILLER_45_261
*1396 FILLER_45_27
*1397 FILLER_45_273
*1398 FILLER_45_279
*1399 FILLER_45_281
*1400 FILLER_45_293
*1401 FILLER_45_3
*1402 FILLER_45_39
*1403 FILLER_45_51
*1404 FILLER_45_55
*1405 FILLER_45_57
*1406 FILLER_45_69
*1407 FILLER_45_81
*1408 FILLER_45_93
*1409 FILLER_46_109
*1410 FILLER_46_121
*1411 FILLER_46_133
*1412 FILLER_46_139
*1413 FILLER_46_141
*1414 FILLER_46_153
*1415 FILLER_46_165
*1416 FILLER_46_177
*1417 FILLER_46_189
*1418 FILLER_46_195
*1419 FILLER_46_197
*1420 FILLER_46_209
*1421 FILLER_46_221
*1422 FILLER_46_233
*1423 FILLER_46_245
*1424 FILLER_46_25
*1425 FILLER_46_251
*1426 FILLER_46_253
*1427 FILLER_46_265
*1428 FILLER_46_277
*1429 FILLER_46_289
*1430 FILLER_46_29
*1431 FILLER_46_297
*1432 FILLER_46_3
*1433 FILLER_46_41
*1434 FILLER_46_53
*1435 FILLER_46_65
*1436 FILLER_46_77
*1437 FILLER_46_83
*1438 FILLER_46_85
*1439 FILLER_46_97
*1440 FILLER_47_105
*1441 FILLER_47_111
*1442 FILLER_47_113
*1443 FILLER_47_125
*1444 FILLER_47_137
*1445 FILLER_47_149
*1446 FILLER_47_161
*1447 FILLER_47_167
*1448 FILLER_47_169
*1449 FILLER_47_181
*1450 FILLER_47_193
*1451 FILLER_47_205
*1452 FILLER_47_21
*1453 FILLER_47_217
*1454 FILLER_47_223
*1455 FILLER_47_225
*1456 FILLER_47_237
*1457 FILLER_47_249
*1458 FILLER_47_261
*1459 FILLER_47_273
*1460 FILLER_47_279
*1461 FILLER_47_281
*1462 FILLER_47_293
*1463 FILLER_47_3
*1464 FILLER_47_33
*1465 FILLER_47_45
*1466 FILLER_47_53
*1467 FILLER_47_57
*1468 FILLER_47_69
*1469 FILLER_47_81
*1470 FILLER_47_9
*1471 FILLER_47_93
*1472 FILLER_48_109
*1473 FILLER_48_12
*1474 FILLER_48_121
*1475 FILLER_48_133
*1476 FILLER_48_139
*1477 FILLER_48_141
*1478 FILLER_48_153
*1479 FILLER_48_165
*1480 FILLER_48_177
*1481 FILLER_48_189
*1482 FILLER_48_195
*1483 FILLER_48_197
*1484 FILLER_48_209
*1485 FILLER_48_221
*1486 FILLER_48_233
*1487 FILLER_48_24
*1488 FILLER_48_245
*1489 FILLER_48_251
*1490 FILLER_48_253
*1491 FILLER_48_265
*1492 FILLER_48_277
*1493 FILLER_48_289
*1494 FILLER_48_29
*1495 FILLER_48_297
*1496 FILLER_48_3
*1497 FILLER_48_41
*1498 FILLER_48_53
*1499 FILLER_48_65
*1500 FILLER_48_77
*1501 FILLER_48_83
*1502 FILLER_48_85
*1503 FILLER_48_97
*1504 FILLER_49_105
*1505 FILLER_49_111
*1506 FILLER_49_113
*1507 FILLER_49_125
*1508 FILLER_49_137
*1509 FILLER_49_149
*1510 FILLER_49_161
*1511 FILLER_49_167
*1512 FILLER_49_169
*1513 FILLER_49_17
*1514 FILLER_49_181
*1515 FILLER_49_193
*1516 FILLER_49_205
*1517 FILLER_49_217
*1518 FILLER_49_223
*1519 FILLER_49_225
*1520 FILLER_49_237
*1521 FILLER_49_249
*1522 FILLER_49_261
*1523 FILLER_49_273
*1524 FILLER_49_279
*1525 FILLER_49_281
*1526 FILLER_49_29
*1527 FILLER_49_293
*1528 FILLER_49_3
*1529 FILLER_49_41
*1530 FILLER_49_53
*1531 FILLER_49_57
*1532 FILLER_49_69
*1533 FILLER_49_81
*1534 FILLER_49_93
*1535 FILLER_4_109
*1536 FILLER_4_121
*1537 FILLER_4_133
*1538 FILLER_4_139
*1539 FILLER_4_141
*1540 FILLER_4_15
*1541 FILLER_4_153
*1542 FILLER_4_165
*1543 FILLER_4_177
*1544 FILLER_4_189
*1545 FILLER_4_195
*1546 FILLER_4_197
*1547 FILLER_4_209
*1548 FILLER_4_221
*1549 FILLER_4_233
*1550 FILLER_4_245
*1551 FILLER_4_251
*1552 FILLER_4_253
*1553 FILLER_4_265
*1554 FILLER_4_27
*1555 FILLER_4_277
*1556 FILLER_4_289
*1557 FILLER_4_29
*1558 FILLER_4_297
*1559 FILLER_4_3
*1560 FILLER_4_41
*1561 FILLER_4_53
*1562 FILLER_4_65
*1563 FILLER_4_77
*1564 FILLER_4_83
*1565 FILLER_4_85
*1566 FILLER_4_97
*1567 FILLER_50_109
*1568 FILLER_50_121
*1569 FILLER_50_133
*1570 FILLER_50_139
*1571 FILLER_50_141
*1572 FILLER_50_153
*1573 FILLER_50_165
*1574 FILLER_50_177
*1575 FILLER_50_189
*1576 FILLER_50_195
*1577 FILLER_50_197
*1578 FILLER_50_209
*1579 FILLER_50_21
*1580 FILLER_50_221
*1581 FILLER_50_233
*1582 FILLER_50_245
*1583 FILLER_50_251
*1584 FILLER_50_253
*1585 FILLER_50_265
*1586 FILLER_50_27
*1587 FILLER_50_277
*1588 FILLER_50_289
*1589 FILLER_50_29
*1590 FILLER_50_297
*1591 FILLER_50_3
*1592 FILLER_50_41
*1593 FILLER_50_53
*1594 FILLER_50_65
*1595 FILLER_50_77
*1596 FILLER_50_83
*1597 FILLER_50_85
*1598 FILLER_50_9
*1599 FILLER_50_97
*1600 FILLER_51_105
*1601 FILLER_51_111
*1602 FILLER_51_113
*1603 FILLER_51_125
*1604 FILLER_51_137
*1605 FILLER_51_149
*1606 FILLER_51_15
*1607 FILLER_51_161
*1608 FILLER_51_167
*1609 FILLER_51_169
*1610 FILLER_51_181
*1611 FILLER_51_193
*1612 FILLER_51_205
*1613 FILLER_51_217
*1614 FILLER_51_223
*1615 FILLER_51_225
*1616 FILLER_51_237
*1617 FILLER_51_249