*SPEF "ieee 1481-1999"
*DESIGN "user_module_349729432862196307"
*DATE "11:11:11 Fri 11 11, 1111"
*VENDOR "OpenRCX"
*PROGRAM "Parallel Extraction"
*VERSION "1.0"
*DESIGN_FLOW "NAME_SCOPE LOCAL" "PIN_CAP NONE"
*DIVIDER /
*DELIMITER :
*BUS_DELIMITER []
*T_UNIT 1 NS
*C_UNIT 1 PF
*R_UNIT 1 OHM
*L_UNIT 1 HENRY

*NAME_MAP
*1 io_in[0]
*2 io_in[1]
*3 io_in[2]
*4 io_in[3]
*5 io_in[4]
*6 io_in[5]
*7 io_in[6]
*8 io_in[7]
*9 io_out[0]
*10 net9
*11 net10
*12 io_out[3]
*13 io_out[4]
*14 io_out[5]
*15 net8
*16 io_out[7]
*19 _00_
*20 _01_
*21 _02_
*22 _03_
*23 _04_
*24 _05_
*25 _06_
*26 _07_
*27 _08_
*28 _09_
*29 _10_
*30 _11_
*31 _12_
*32 _13_
*33 _14_
*34 _15_
*35 _16_
*36 _17_
*37 _18_
*38 _19_
*39 _20_
*40 _21_
*41 _22_
*42 _23_
*43 _24_
*44 clknet_0_flipflop10\.clk
*45 clknet_0_gate2\.a
*46 clknet_0_io_in[0]
*47 clknet_1_0__leaf_flipflop10\.clk
*48 clknet_1_0__leaf_gate2\.a
*49 clknet_1_0__leaf_io_in[0]
*50 clknet_1_1__leaf_flipflop10\.clk
*51 clknet_1_1__leaf_gate2\.a
*52 clknet_1_1__leaf_io_in[0]
*53 flipflop1\.q
*54 flipflop10\.clk
*55 flipflop10\.q
*56 flipflop11\.q
*57 flipflop12\.q
*58 flipflop13\.q
*59 flipflop14\.q
*60 flipflop2\.q
*61 flipflop3\.d
*62 flipflop3\.q
*63 flipflop4\.d
*64 flipflop4\.q
*65 flipflop5\.d
*66 flipflop5\.q
*67 flipflop6\.d
*68 flipflop6\.q
*69 flipflop7\.d
*70 flipflop7\.q
*71 flipflop8\.d
*72 flipflop8\.q
*73 flipflop9\.q
*74 gate2\.a
*75 net1
*76 net2
*77 net3
*78 net4
*79 net5
*80 net6
*81 net7
*82 FILLER_0_109
*83 FILLER_0_113
*84 FILLER_0_125
*85 FILLER_0_137
*86 FILLER_0_141
*87 FILLER_0_15
*88 FILLER_0_153
*89 FILLER_0_165
*90 FILLER_0_169
*91 FILLER_0_181
*92 FILLER_0_193
*93 FILLER_0_197
*94 FILLER_0_209
*95 FILLER_0_221
*96 FILLER_0_225
*97 FILLER_0_237
*98 FILLER_0_249
*99 FILLER_0_253
*100 FILLER_0_265
*101 FILLER_0_27
*102 FILLER_0_277
*103 FILLER_0_281
*104 FILLER_0_29
*105 FILLER_0_293
*106 FILLER_0_3
*107 FILLER_0_41
*108 FILLER_0_53
*109 FILLER_0_57
*110 FILLER_0_69
*111 FILLER_0_81
*112 FILLER_0_85
*113 FILLER_0_97
*114 FILLER_10_109
*115 FILLER_10_121
*116 FILLER_10_133
*117 FILLER_10_139
*118 FILLER_10_141
*119 FILLER_10_15
*120 FILLER_10_153
*121 FILLER_10_165
*122 FILLER_10_177
*123 FILLER_10_189
*124 FILLER_10_195
*125 FILLER_10_197
*126 FILLER_10_209
*127 FILLER_10_221
*128 FILLER_10_233
*129 FILLER_10_245
*130 FILLER_10_251
*131 FILLER_10_253
*132 FILLER_10_265
*133 FILLER_10_27
*134 FILLER_10_277
*135 FILLER_10_289
*136 FILLER_10_29
*137 FILLER_10_297
*138 FILLER_10_3
*139 FILLER_10_41
*140 FILLER_10_53
*141 FILLER_10_65
*142 FILLER_10_77
*143 FILLER_10_83
*144 FILLER_10_85
*145 FILLER_10_97
*146 FILLER_11_105
*147 FILLER_11_111
*148 FILLER_11_113
*149 FILLER_11_125
*150 FILLER_11_137
*151 FILLER_11_149
*152 FILLER_11_15
*153 FILLER_11_161
*154 FILLER_11_167
*155 FILLER_11_169
*156 FILLER_11_181
*157 FILLER_11_193
*158 FILLER_11_205
*159 FILLER_11_217
*160 FILLER_11_223
*161 FILLER_11_225
*162 FILLER_11_237
*163 FILLER_11_249
*164 FILLER_11_261
*165 FILLER_11_27
*166 FILLER_11_273
*167 FILLER_11_279
*168 FILLER_11_281
*169 FILLER_11_293
*170 FILLER_11_3
*171 FILLER_11_39
*172 FILLER_11_51
*173 FILLER_11_55
*174 FILLER_11_57
*175 FILLER_11_69
*176 FILLER_11_81
*177 FILLER_11_93
*178 FILLER_12_109
*179 FILLER_12_121
*180 FILLER_12_133
*181 FILLER_12_139
*182 FILLER_12_141
*183 FILLER_12_153
*184 FILLER_12_165
*185 FILLER_12_177
*186 FILLER_12_189
*187 FILLER_12_195
*188 FILLER_12_197
*189 FILLER_12_20
*190 FILLER_12_209
*191 FILLER_12_221
*192 FILLER_12_233
*193 FILLER_12_245
*194 FILLER_12_251
*195 FILLER_12_253
*196 FILLER_12_265
*197 FILLER_12_277
*198 FILLER_12_289
*199 FILLER_12_29
*200 FILLER_12_297
*201 FILLER_12_3
*202 FILLER_12_41
*203 FILLER_12_53
*204 FILLER_12_65
*205 FILLER_12_77
*206 FILLER_12_8
*207 FILLER_12_83
*208 FILLER_12_85
*209 FILLER_12_97
*210 FILLER_13_105
*211 FILLER_13_111
*212 FILLER_13_113
*213 FILLER_13_125
*214 FILLER_13_137
*215 FILLER_13_149
*216 FILLER_13_15
*217 FILLER_13_161
*218 FILLER_13_167
*219 FILLER_13_169
*220 FILLER_13_181
*221 FILLER_13_193
*222 FILLER_13_205
*223 FILLER_13_217
*224 FILLER_13_223
*225 FILLER_13_225
*226 FILLER_13_237
*227 FILLER_13_249
*228 FILLER_13_261
*229 FILLER_13_27
*230 FILLER_13_273
*231 FILLER_13_279
*232 FILLER_13_281
*233 FILLER_13_293
*234 FILLER_13_3
*235 FILLER_13_39
*236 FILLER_13_51
*237 FILLER_13_55
*238 FILLER_13_57
*239 FILLER_13_69
*240 FILLER_13_81
*241 FILLER_13_93
*242 FILLER_14_109
*243 FILLER_14_121
*244 FILLER_14_133
*245 FILLER_14_139
*246 FILLER_14_14
*247 FILLER_14_141
*248 FILLER_14_153
*249 FILLER_14_165
*250 FILLER_14_177
*251 FILLER_14_189
*252 FILLER_14_195
*253 FILLER_14_197
*254 FILLER_14_209
*255 FILLER_14_221
*256 FILLER_14_233
*257 FILLER_14_245
*258 FILLER_14_251
*259 FILLER_14_253
*260 FILLER_14_26
*261 FILLER_14_265
*262 FILLER_14_277
*263 FILLER_14_289
*264 FILLER_14_29
*265 FILLER_14_297
*266 FILLER_14_3
*267 FILLER_14_41
*268 FILLER_14_53
*269 FILLER_14_65
*270 FILLER_14_77
*271 FILLER_14_83
*272 FILLER_14_85
*273 FILLER_14_97
*274 FILLER_15_105
*275 FILLER_15_111
*276 FILLER_15_113
*277 FILLER_15_125
*278 FILLER_15_137
*279 FILLER_15_149
*280 FILLER_15_15
*281 FILLER_15_161
*282 FILLER_15_167
*283 FILLER_15_169
*284 FILLER_15_181
*285 FILLER_15_193
*286 FILLER_15_205
*287 FILLER_15_217
*288 FILLER_15_22
*289 FILLER_15_223
*290 FILLER_15_225
*291 FILLER_15_237
*292 FILLER_15_249
*293 FILLER_15_261
*294 FILLER_15_273
*295 FILLER_15_279
*296 FILLER_15_281
*297 FILLER_15_293
*298 FILLER_15_3
*299 FILLER_15_34
*300 FILLER_15_46
*301 FILLER_15_54
*302 FILLER_15_57
*303 FILLER_15_69
*304 FILLER_15_81
*305 FILLER_15_93
*306 FILLER_16_109
*307 FILLER_16_12
*308 FILLER_16_121
*309 FILLER_16_133
*310 FILLER_16_139
*311 FILLER_16_141
*312 FILLER_16_153
*313 FILLER_16_165
*314 FILLER_16_177
*315 FILLER_16_189
*316 FILLER_16_195
*317 FILLER_16_197
*318 FILLER_16_20
*319 FILLER_16_209
*320 FILLER_16_221
*321 FILLER_16_233
*322 FILLER_16_245
*323 FILLER_16_251
*324 FILLER_16_253
*325 FILLER_16_265
*326 FILLER_16_277
*327 FILLER_16_289
*328 FILLER_16_29
*329 FILLER_16_297
*330 FILLER_16_3
*331 FILLER_16_40
*332 FILLER_16_52
*333 FILLER_16_64
*334 FILLER_16_76
*335 FILLER_16_85
*336 FILLER_16_97
*337 FILLER_17_105
*338 FILLER_17_111
*339 FILLER_17_113
*340 FILLER_17_125
*341 FILLER_17_137
*342 FILLER_17_149
*343 FILLER_17_15
*344 FILLER_17_161
*345 FILLER_17_167
*346 FILLER_17_169
*347 FILLER_17_181
*348 FILLER_17_193
*349 FILLER_17_205
*350 FILLER_17_217
*351 FILLER_17_223
*352 FILLER_17_225
*353 FILLER_17_237
*354 FILLER_17_249
*355 FILLER_17_261
*356 FILLER_17_273
*357 FILLER_17_279
*358 FILLER_17_281
*359 FILLER_17_29
*360 FILLER_17_293
*361 FILLER_17_3
*362 FILLER_17_41
*363 FILLER_17_53
*364 FILLER_17_57
*365 FILLER_17_69
*366 FILLER_17_81
*367 FILLER_17_93
*368 FILLER_18_109
*369 FILLER_18_121
*370 FILLER_18_133
*371 FILLER_18_139
*372 FILLER_18_141
*373 FILLER_18_15
*374 FILLER_18_153
*375 FILLER_18_165
*376 FILLER_18_177
*377 FILLER_18_189
*378 FILLER_18_195
*379 FILLER_18_197
*380 FILLER_18_209
*381 FILLER_18_22
*382 FILLER_18_221
*383 FILLER_18_233
*384 FILLER_18_245
*385 FILLER_18_251
*386 FILLER_18_253
*387 FILLER_18_265
*388 FILLER_18_277
*389 FILLER_18_289
*390 FILLER_18_29
*391 FILLER_18_297
*392 FILLER_18_3
*393 FILLER_18_34
*394 FILLER_18_41
*395 FILLER_18_53
*396 FILLER_18_65
*397 FILLER_18_77
*398 FILLER_18_83
*399 FILLER_18_85
*400 FILLER_18_97
*401 FILLER_19_105
*402 FILLER_19_11
*403 FILLER_19_111
*404 FILLER_19_113
*405 FILLER_19_125
*406 FILLER_19_137
*407 FILLER_19_149
*408 FILLER_19_161
*409 FILLER_19_167
*410 FILLER_19_169
*411 FILLER_19_181
*412 FILLER_19_19
*413 FILLER_19_193
*414 FILLER_19_205
*415 FILLER_19_217
*416 FILLER_19_223
*417 FILLER_19_225
*418 FILLER_19_237
*419 FILLER_19_249
*420 FILLER_19_261
*421 FILLER_19_27
*422 FILLER_19_273
*423 FILLER_19_279
*424 FILLER_19_281
*425 FILLER_19_293
*426 FILLER_19_3
*427 FILLER_19_34
*428 FILLER_19_46
*429 FILLER_19_54
*430 FILLER_19_57
*431 FILLER_19_69
*432 FILLER_19_81
*433 FILLER_19_93
*434 FILLER_1_105
*435 FILLER_1_111
*436 FILLER_1_113
*437 FILLER_1_125
*438 FILLER_1_137
*439 FILLER_1_149
*440 FILLER_1_161
*441 FILLER_1_167
*442 FILLER_1_169
*443 FILLER_1_181
*444 FILLER_1_193
*445 FILLER_1_205
*446 FILLER_1_21
*447 FILLER_1_217
*448 FILLER_1_223
*449 FILLER_1_225
*450 FILLER_1_237
*451 FILLER_1_249
*452 FILLER_1_261
*453 FILLER_1_273
*454 FILLER_1_279
*455 FILLER_1_281
*456 FILLER_1_293
*457 FILLER_1_3
*458 FILLER_1_33
*459 FILLER_1_45
*460 FILLER_1_53
*461 FILLER_1_57
*462 FILLER_1_69
*463 FILLER_1_81
*464 FILLER_1_93
*465 FILLER_20_109
*466 FILLER_20_11
*467 FILLER_20_121
*468 FILLER_20_133
*469 FILLER_20_139
*470 FILLER_20_141
*471 FILLER_20_153
*472 FILLER_20_165
*473 FILLER_20_177
*474 FILLER_20_18
*475 FILLER_20_189
*476 FILLER_20_195
*477 FILLER_20_197
*478 FILLER_20_209
*479 FILLER_20_221
*480 FILLER_20_233
*481 FILLER_20_245
*482 FILLER_20_25
*483 FILLER_20_251
*484 FILLER_20_253
*485 FILLER_20_265
*486 FILLER_20_277
*487 FILLER_20_289
*488 FILLER_20_29
*489 FILLER_20_297
*490 FILLER_20_3
*491 FILLER_20_34
*492 FILLER_20_46
*493 FILLER_20_58
*494 FILLER_20_70
*495 FILLER_20_82
*496 FILLER_20_85
*497 FILLER_20_97
*498 FILLER_21_105
*499 FILLER_21_111
*500 FILLER_21_113
*501 FILLER_21_125
*502 FILLER_21_137
*503 FILLER_21_149
*504 FILLER_21_161
*505 FILLER_21_167
*506 FILLER_21_169
*507 FILLER_21_18
*508 FILLER_21_181
*509 FILLER_21_193
*510 FILLER_21_205
*511 FILLER_21_217
*512 FILLER_21_223
*513 FILLER_21_225
*514 FILLER_21_237
*515 FILLER_21_249
*516 FILLER_21_261
*517 FILLER_21_273
*518 FILLER_21_279
*519 FILLER_21_28
*520 FILLER_21_281
*521 FILLER_21_293
*522 FILLER_21_3
*523 FILLER_21_40
*524 FILLER_21_52
*525 FILLER_21_57
*526 FILLER_21_69
*527 FILLER_21_81
*528 FILLER_21_93
*529 FILLER_22_109
*530 FILLER_22_121
*531 FILLER_22_133
*532 FILLER_22_139
*533 FILLER_22_141
*534 FILLER_22_153
*535 FILLER_22_165
*536 FILLER_22_177
*537 FILLER_22_189
*538 FILLER_22_195
*539 FILLER_22_197
*540 FILLER_22_209
*541 FILLER_22_221
*542 FILLER_22_233
*543 FILLER_22_245
*544 FILLER_22_25
*545 FILLER_22_251
*546 FILLER_22_253
*547 FILLER_22_265
*548 FILLER_22_277
*549 FILLER_22_289
*550 FILLER_22_29
*551 FILLER_22_297
*552 FILLER_22_3
*553 FILLER_22_41
*554 FILLER_22_53
*555 FILLER_22_65
*556 FILLER_22_77
*557 FILLER_22_83
*558 FILLER_22_85
*559 FILLER_22_97
*560 FILLER_23_105
*561 FILLER_23_111
*562 FILLER_23_113
*563 FILLER_23_125
*564 FILLER_23_137
*565 FILLER_23_149
*566 FILLER_23_161
*567 FILLER_23_167
*568 FILLER_23_169
*569 FILLER_23_17
*570 FILLER_23_181
*571 FILLER_23_193
*572 FILLER_23_205
*573 FILLER_23_21
*574 FILLER_23_217
*575 FILLER_23_223
*576 FILLER_23_225
*577 FILLER_23_237
*578 FILLER_23_249
*579 FILLER_23_261
*580 FILLER_23_273
*581 FILLER_23_279
*582 FILLER_23_281
*583 FILLER_23_29
*584 FILLER_23_293
*585 FILLER_23_3
*586 FILLER_23_41
*587 FILLER_23_53
*588 FILLER_23_57
*589 FILLER_23_69
*590 FILLER_23_81
*591 FILLER_23_93
*592 FILLER_24_109
*593 FILLER_24_121
*594 FILLER_24_133
*595 FILLER_24_139
*596 FILLER_24_141
*597 FILLER_24_153
*598 FILLER_24_165
*599 FILLER_24_177
*600 FILLER_24_18
*601 FILLER_24_189
*602 FILLER_24_195
*603 FILLER_24_197
*604 FILLER_24_209
*605 FILLER_24_221
*606 FILLER_24_233
*607 FILLER_24_245
*608 FILLER_24_25
*609 FILLER_24_251
*610 FILLER_24_253
*611 FILLER_24_265
*612 FILLER_24_277
*613 FILLER_24_289
*614 FILLER_24_29
*615 FILLER_24_297
*616 FILLER_24_3
*617 FILLER_24_41
*618 FILLER_24_53
*619 FILLER_24_65
*620 FILLER_24_77
*621 FILLER_24_83
*622 FILLER_24_85
*623 FILLER_24_97
*624 FILLER_25_105
*625 FILLER_25_111
*626 FILLER_25_113
*627 FILLER_25_125
*628 FILLER_25_137
*629 FILLER_25_149
*630 FILLER_25_16
*631 FILLER_25_161
*632 FILLER_25_167
*633 FILLER_25_169
*634 FILLER_25_181
*635 FILLER_25_193
*636 FILLER_25_205
*637 FILLER_25_217
*638 FILLER_25_223
*639 FILLER_25_225
*640 FILLER_25_23
*641 FILLER_25_237
*642 FILLER_25_249
*643 FILLER_25_261
*644 FILLER_25_273
*645 FILLER_25_279
*646 FILLER_25_281
*647 FILLER_25_293
*648 FILLER_25_3
*649 FILLER_25_35
*650 FILLER_25_47
*651 FILLER_25_55
*652 FILLER_25_57
*653 FILLER_25_69
*654 FILLER_25_81
*655 FILLER_25_9
*656 FILLER_25_93
*657 FILLER_26_109
*658 FILLER_26_121
*659 FILLER_26_133
*660 FILLER_26_139
*661 FILLER_26_141
*662 FILLER_26_15
*663 FILLER_26_153
*664 FILLER_26_165
*665 FILLER_26_177
*666 FILLER_26_189
*667 FILLER_26_195
*668 FILLER_26_197
*669 FILLER_26_209
*670 FILLER_26_221
*671 FILLER_26_233
*672 FILLER_26_245
*673 FILLER_26_251
*674 FILLER_26_253
*675 FILLER_26_26
*676 FILLER_26_265
*677 FILLER_26_277
*678 FILLER_26_289
*679 FILLER_26_29
*680 FILLER_26_297
*681 FILLER_26_3
*682 FILLER_26_41
*683 FILLER_26_53
*684 FILLER_26_65
*685 FILLER_26_77
*686 FILLER_26_8
*687 FILLER_26_83
*688 FILLER_26_85
*689 FILLER_26_97
*690 FILLER_27_10
*691 FILLER_27_105
*692 FILLER_27_111
*693 FILLER_27_113
*694 FILLER_27_125
*695 FILLER_27_137
*696 FILLER_27_149
*697 FILLER_27_161
*698 FILLER_27_167
*699 FILLER_27_169
*700 FILLER_27_181
*701 FILLER_27_193
*702 FILLER_27_205
*703 FILLER_27_217
*704 FILLER_27_22
*705 FILLER_27_223
*706 FILLER_27_225
*707 FILLER_27_237
*708 FILLER_27_249
*709 FILLER_27_261
*710 FILLER_27_273
*711 FILLER_27_279
*712 FILLER_27_281
*713 FILLER_27_293
*714 FILLER_27_3
*715 FILLER_27_34
*716 FILLER_27_46
*717 FILLER_27_54
*718 FILLER_27_57
*719 FILLER_27_69
*720 FILLER_27_81
*721 FILLER_27_93
*722 FILLER_28_109
*723 FILLER_28_121
*724 FILLER_28_133
*725 FILLER_28_139
*726 FILLER_28_141
*727 FILLER_28_15
*728 FILLER_28_153
*729 FILLER_28_165
*730 FILLER_28_177
*731 FILLER_28_189
*732 FILLER_28_195
*733 FILLER_28_197
*734 FILLER_28_209
*735 FILLER_28_221
*736 FILLER_28_233
*737 FILLER_28_245
*738 FILLER_28_251
*739 FILLER_28_253
*740 FILLER_28_265
*741 FILLER_28_27
*742 FILLER_28_277
*743 FILLER_28_289
*744 FILLER_28_29
*745 FILLER_28_297
*746 FILLER_28_3
*747 FILLER_28_41
*748 FILLER_28_53
*749 FILLER_28_65
*750 FILLER_28_77
*751 FILLER_28_83
*752 FILLER_28_85
*753 FILLER_28_97
*754 FILLER_29_105
*755 FILLER_29_111
*756 FILLER_29_113
*757 FILLER_29_125
*758 FILLER_29_137
*759 FILLER_29_149
*760 FILLER_29_161
*761 FILLER_29_167
*762 FILLER_29_169
*763 FILLER_29_181
*764 FILLER_29_193
*765 FILLER_29_205
*766 FILLER_29_217
*767 FILLER_29_223
*768 FILLER_29_225
*769 FILLER_29_237
*770 FILLER_29_249
*771 FILLER_29_261
*772 FILLER_29_27
*773 FILLER_29_273
*774 FILLER_29_279
*775 FILLER_29_281
*776 FILLER_29_293
*777 FILLER_29_3
*778 FILLER_29_39
*779 FILLER_29_51
*780 FILLER_29_55
*781 FILLER_29_57
*782 FILLER_29_69
*783 FILLER_29_81
*784 FILLER_29_93
*785 FILLER_2_109
*786 FILLER_2_121
*787 FILLER_2_133
*788 FILLER_2_139
*789 FILLER_2_141
*790 FILLER_2_15
*791 FILLER_2_153
*792 FILLER_2_165
*793 FILLER_2_177
*794 FILLER_2_189
*795 FILLER_2_195
*796 FILLER_2_197
*797 FILLER_2_209
*798 FILLER_2_221
*799 FILLER_2_233
*800 FILLER_2_245
*801 FILLER_2_251
*802 FILLER_2_253
*803 FILLER_2_265
*804 FILLER_2_27
*805 FILLER_2_277
*806 FILLER_2_289
*807 FILLER_2_29
*808 FILLER_2_297
*809 FILLER_2_3
*810 FILLER_2_41
*811 FILLER_2_53
*812 FILLER_2_65
*813 FILLER_2_77
*814 FILLER_2_83
*815 FILLER_2_85
*816 FILLER_2_97
*817 FILLER_30_109
*818 FILLER_30_121
*819 FILLER_30_133
*820 FILLER_30_139
*821 FILLER_30_141
*822 FILLER_30_15
*823 FILLER_30_153
*824 FILLER_30_165
*825 FILLER_30_177
*826 FILLER_30_189
*827 FILLER_30_195
*828 FILLER_30_197
*829 FILLER_30_209
*830 FILLER_30_221
*831 FILLER_30_233
*832 FILLER_30_245
*833 FILLER_30_251
*834 FILLER_30_253
*835 FILLER_30_265
*836 FILLER_30_27
*837 FILLER_30_277
*838 FILLER_30_289
*839 FILLER_30_29
*840 FILLER_30_297
*841 FILLER_30_3
*842 FILLER_30_35
*843 FILLER_30_39
*844 FILLER_30_51
*845 FILLER_30_63
*846 FILLER_30_75
*847 FILLER_30_83
*848 FILLER_30_85
*849 FILLER_30_97
*850 FILLER_31_105
*851 FILLER_31_111
*852 FILLER_31_113
*853 FILLER_31_125
*854 FILLER_31_137
*855 FILLER_31_149
*856 FILLER_31_161
*857 FILLER_31_167
*858 FILLER_31_169
*859 FILLER_31_181
*860 FILLER_31_193
*861 FILLER_31_205
*862 FILLER_31_217
*863 FILLER_31_223
*864 FILLER_31_225
*865 FILLER_31_237
*866 FILLER_31_249
*867 FILLER_31_25
*868 FILLER_31_261
*869 FILLER_31_273
*870 FILLER_31_279
*871 FILLER_31_281
*872 FILLER_31_293
*873 FILLER_31_3
*874 FILLER_31_37
*875 FILLER_31_49
*876 FILLER_31_55
*877 FILLER_31_57
*878 FILLER_31_69
*879 FILLER_31_81
*880 FILLER_31_93
*881 FILLER_32_109
*882 FILLER_32_121
*883 FILLER_32_133
*884 FILLER_32_139
*885 FILLER_32_141
*886 FILLER_32_15
*887 FILLER_32_153
*888 FILLER_32_165
*889 FILLER_32_177
*890 FILLER_32_189
*891 FILLER_32_195
*892 FILLER_32_197
*893 FILLER_32_209
*894 FILLER_32_221
*895 FILLER_32_233
*896 FILLER_32_245
*897 FILLER_32_251
*898 FILLER_32_253
*899 FILLER_32_265
*900 FILLER_32_27
*901 FILLER_32_277
*902 FILLER_32_289
*903 FILLER_32_29
*904 FILLER_32_297
*905 FILLER_32_3
*906 FILLER_32_41
*907 FILLER_32_53
*908 FILLER_32_65
*909 FILLER_32_77
*910 FILLER_32_83
*911 FILLER_32_85
*912 FILLER_32_97
*913 FILLER_33_105
*914 FILLER_33_111
*915 FILLER_33_113
*916 FILLER_33_125
*917 FILLER_33_137
*918 FILLER_33_149
*919 FILLER_33_15
*920 FILLER_33_161
*921 FILLER_33_167
*922 FILLER_33_169
*923 FILLER_33_181
*924 FILLER_33_193
*925 FILLER_33_205
*926 FILLER_33_217
*927 FILLER_33_223
*928 FILLER_33_225
*929 FILLER_33_237
*930 FILLER_33_249
*931 FILLER_33_261
*932 FILLER_33_27
*933 FILLER_33_273
*934 FILLER_33_279
*935 FILLER_33_281
*936 FILLER_33_293
*937 FILLER_33_3
*938 FILLER_33_39
*939 FILLER_33_51
*940 FILLER_33_55
*941 FILLER_33_57
*942 FILLER_33_69
*943 FILLER_33_81
*944 FILLER_33_93
*945 FILLER_34_109
*946 FILLER_34_121
*947 FILLER_34_133
*948 FILLER_34_139
*949 FILLER_34_141
*950 FILLER_34_15
*951 FILLER_34_153
*952 FILLER_34_165
*953 FILLER_34_177
*954 FILLER_34_189
*955 FILLER_34_195
*956 FILLER_34_197
*957 FILLER_34_209
*958 FILLER_34_221
*959 FILLER_34_233
*960 FILLER_34_245
*961 FILLER_34_251
*962 FILLER_34_253
*963 FILLER_34_265
*964 FILLER_34_27
*965 FILLER_34_277
*966 FILLER_34_289
*967 FILLER_34_29
*968 FILLER_34_297
*969 FILLER_34_3
*970 FILLER_34_41
*971 FILLER_34_53
*972 FILLER_34_65
*973 FILLER_34_77
*974 FILLER_34_83
*975 FILLER_34_85
*976 FILLER_34_97
*977 FILLER_35_105
*978 FILLER_35_111
*979 FILLER_35_113
*980 FILLER_35_125
*981 FILLER_35_137
*982 FILLER_35_149
*983 FILLER_35_161
*984 FILLER_35_167
*985 FILLER_35_169
*986 FILLER_35_181
*987 FILLER_35_193
*988 FILLER_35_20
*989 FILLER_35_205
*990 FILLER_35_217
*991 FILLER_35_223
*992 FILLER_35_225
*993 FILLER_35_237
*994 FILLER_35_249
*995 FILLER_35_261
*996 FILLER_35_273
*997 FILLER_35_279
*998 FILLER_35_281
*999 FILLER_35_293
*1000 FILLER_35_3
*1001 FILLER_35_32
*1002 FILLER_35_44
*1003 FILLER_35_57
*1004 FILLER_35_69
*1005 FILLER_35_8
*1006 FILLER_35_81
*1007 FILLER_35_93
*1008 FILLER_36_109
*1009 FILLER_36_121
*1010 FILLER_36_133
*1011 FILLER_36_139
*1012 FILLER_36_141
*1013 FILLER_36_15
*1014 FILLER_36_153
*1015 FILLER_36_165
*1016 FILLER_36_177
*1017 FILLER_36_189
*1018 FILLER_36_195
*1019 FILLER_36_197
*1020 FILLER_36_209
*1021 FILLER_36_221
*1022 FILLER_36_233
*1023 FILLER_36_245
*1024 FILLER_36_251
*1025 FILLER_36_253
*1026 FILLER_36_265
*1027 FILLER_36_27
*1028 FILLER_36_277
*1029 FILLER_36_289
*1030 FILLER_36_29
*1031 FILLER_36_297
*1032 FILLER_36_3
*1033 FILLER_36_41
*1034 FILLER_36_53
*1035 FILLER_36_65
*1036 FILLER_36_77
*1037 FILLER_36_83
*1038 FILLER_36_85
*1039 FILLER_36_97
*1040 FILLER_37_105
*1041 FILLER_37_111
*1042 FILLER_37_113
*1043 FILLER_37_125
*1044 FILLER_37_137
*1045 FILLER_37_149
*1046 FILLER_37_15
*1047 FILLER_37_161
*1048 FILLER_37_167
*1049 FILLER_37_169
*1050 FILLER_37_181
*1051 FILLER_37_193
*1052 FILLER_37_205
*1053 FILLER_37_217
*1054 FILLER_37_223
*1055 FILLER_37_225
*1056 FILLER_37_237
*1057 FILLER_37_249
*1058 FILLER_37_261
*1059 FILLER_37_27
*1060 FILLER_37_273
*1061 FILLER_37_279
*1062 FILLER_37_281
*1063 FILLER_37_293
*1064 FILLER_37_3
*1065 FILLER_37_39
*1066 FILLER_37_51
*1067 FILLER_37_55
*1068 FILLER_37_57
*1069 FILLER_37_69
*1070 FILLER_37_81
*1071 FILLER_37_93
*1072 FILLER_38_109
*1073 FILLER_38_121
*1074 FILLER_38_133
*1075 FILLER_38_139
*1076 FILLER_38_141
*1077 FILLER_38_153
*1078 FILLER_38_165
*1079 FILLER_38_177
*1080 FILLER_38_189
*1081 FILLER_38_195
*1082 FILLER_38_197
*1083 FILLER_38_20
*1084 FILLER_38_209
*1085 FILLER_38_221
*1086 FILLER_38_233
*1087 FILLER_38_245
*1088 FILLER_38_251
*1089 FILLER_38_253
*1090 FILLER_38_265
*1091 FILLER_38_277
*1092 FILLER_38_289
*1093 FILLER_38_29
*1094 FILLER_38_297
*1095 FILLER_38_3
*1096 FILLER_38_41
*1097 FILLER_38_53
*1098 FILLER_38_65
*1099 FILLER_38_77
*1100 FILLER_38_8
*1101 FILLER_38_83
*1102 FILLER_38_85
*1103 FILLER_38_97
*1104 FILLER_39_105
*1105 FILLER_39_111
*1106 FILLER_39_113
*1107 FILLER_39_125
*1108 FILLER_39_137
*1109 FILLER_39_14
*1110 FILLER_39_149
*1111 FILLER_39_161
*1112 FILLER_39_167
*1113 FILLER_39_169
*1114 FILLER_39_181
*1115 FILLER_39_193
*1116 FILLER_39_205
*1117 FILLER_39_217
*1118 FILLER_39_223
*1119 FILLER_39_225
*1120 FILLER_39_237
*1121 FILLER_39_249
*1122 FILLER_39_26
*1123 FILLER_39_261
*1124 FILLER_39_273
*1125 FILLER_39_279
*1126 FILLER_39_281
*1127 FILLER_39_293
*1128 FILLER_39_3
*1129 FILLER_39_38
*1130 FILLER_39_50
*1131 FILLER_39_57
*1132 FILLER_39_69
*1133 FILLER_39_81
*1134 FILLER_39_93
*1135 FILLER_3_105
*1136 FILLER_3_111
*1137 FILLER_3_113
*1138 FILLER_3_125
*1139 FILLER_3_137
*1140 FILLER_3_149
*1141 FILLER_3_15
*1142 FILLER_3_161
*1143 FILLER_3_167
*1144 FILLER_3_169
*1145 FILLER_3_181
*1146 FILLER_3_193
*1147 FILLER_3_205
*1148 FILLER_3_217
*1149 FILLER_3_223
*1150 FILLER_3_225
*1151 FILLER_3_237
*1152 FILLER_3_249
*1153 FILLER_3_261
*1154 FILLER_3_27
*1155 FILLER_3_273
*1156 FILLER_3_279
*1157 FILLER_3_281
*1158 FILLER_3_293
*1159 FILLER_3_3
*1160 FILLER_3_39
*1161 FILLER_3_51
*1162 FILLER_3_55
*1163 FILLER_3_57
*1164 FILLER_3_69
*1165 FILLER_3_81
*1166 FILLER_3_93
*1167 FILLER_40_109
*1168 FILLER_40_121
*1169 FILLER_40_133
*1170 FILLER_40_139
*1171 FILLER_40_141
*1172 FILLER_40_153
*1173 FILLER_40_165
*1174 FILLER_40_177
*1175 FILLER_40_189
*1176 FILLER_40_195
*1177 FILLER_40_197
*1178 FILLER_40_209
*1179 FILLER_40_221
*1180 FILLER_40_233
*1181 FILLER_40_245
*1182 FILLER_40_25
*1183 FILLER_40_251
*1184 FILLER_40_253
*1185 FILLER_40_265
*1186 FILLER_40_277
*1187 FILLER_40_289
*1188 FILLER_40_29
*1189 FILLER_40_297
*1190 FILLER_40_3
*1191 FILLER_40_41
*1192 FILLER_40_53
*1193 FILLER_40_65
*1194 FILLER_40_77
*1195 FILLER_40_83
*1196 FILLER_40_85
*1197 FILLER_40_97
*1198 FILLER_41_105
*1199 FILLER_41_111
*1200 FILLER_41_113
*1201 FILLER_41_125
*1202 FILLER_41_137
*1203 FILLER_41_149
*1204 FILLER_41_15
*1205 FILLER_41_161
*1206 FILLER_41_167
*1207 FILLER_41_169
*1208 FILLER_41_181
*1209 FILLER_41_193
*1210 FILLER_41_205
*1211 FILLER_41_217
*1212 FILLER_41_223
*1213 FILLER_41_225
*1214 FILLER_41_237
*1215 FILLER_41_249
*1216 FILLER_41_261
*1217 FILLER_41_273
*1218 FILLER_41_279
*1219 FILLER_41_281
*1220 FILLER_41_293
*1221 FILLER_41_3
*1222 FILLER_41_36
*1223 FILLER_41_48
*1224 FILLER_41_57
*1225 FILLER_41_69
*1226 FILLER_41_81
*1227 FILLER_41_9
*1228 FILLER_41_93
*1229 FILLER_42_109
*1230 FILLER_42_121
*1231 FILLER_42_133
*1232 FILLER_42_139
*1233 FILLER_42_141
*1234 FILLER_42_153
*1235 FILLER_42_165
*1236 FILLER_42_177
*1237 FILLER_42_18
*1238 FILLER_42_189
*1239 FILLER_42_195
*1240 FILLER_42_197
*1241 FILLER_42_209
*1242 FILLER_42_221
*1243 FILLER_42_233
*1244 FILLER_42_245
*1245 FILLER_42_251
*1246 FILLER_42_253
*1247 FILLER_42_26
*1248 FILLER_42_265
*1249 FILLER_42_277
*1250 FILLER_42_289
*1251 FILLER_42_29
*1252 FILLER_42_297
*1253 FILLER_42_3
*1254 FILLER_42_47
*1255 FILLER_42_59
*1256 FILLER_42_71
*1257 FILLER_42_83
*1258 FILLER_42_85
*1259 FILLER_42_97
*1260 FILLER_43_105
*1261 FILLER_43_111
*1262 FILLER_43_113
*1263 FILLER_43_125
*1264 FILLER_43_137
*1265 FILLER_43_149
*1266 FILLER_43_161
*1267 FILLER_43_167
*1268 FILLER_43_169
*1269 FILLER_43_181
*1270 FILLER_43_193
*1271 FILLER_43_205
*1272 FILLER_43_217
*1273 FILLER_43_223
*1274 FILLER_43_225
*1275 FILLER_43_237
*1276 FILLER_43_249
*1277 FILLER_43_261
*1278 FILLER_43_27
*1279 FILLER_43_273
*1280 FILLER_43_279
*1281 FILLER_43_281
*1282 FILLER_43_293
*1283 FILLER_43_3
*1284 FILLER_43_47
*1285 FILLER_43_55
*1286 FILLER_43_57
*1287 FILLER_43_69
*1288 FILLER_43_81
*1289 FILLER_43_93
*1290 FILLER_44_109
*1291 FILLER_44_121
*1292 FILLER_44_133
*1293 FILLER_44_139
*1294 FILLER_44_141
*1295 FILLER_44_153
*1296 FILLER_44_165
*1297 FILLER_44_177
*1298 FILLER_44_189
*1299 FILLER_44_195
*1300 FILLER_44_197
*1301 FILLER_44_209
*1302 FILLER_44_221
*1303 FILLER_44_233
*1304 FILLER_44_245
*1305 FILLER_44_251
*1306 FILLER_44_253
*1307 FILLER_44_26
*1308 FILLER_44_265
*1309 FILLER_44_277
*1310 FILLER_44_289
*1311 FILLER_44_29
*1312 FILLER_44_297
*1313 FILLER_44_3
*1314 FILLER_44_49
*1315 FILLER_44_61
*1316 FILLER_44_73
*1317 FILLER_44_81
*1318 FILLER_44_85
*1319 FILLER_44_9
*1320 FILLER_44_97
*1321 FILLER_45_105
*1322 FILLER_45_111
*1323 FILLER_45_113
*1324 FILLER_45_125
*1325 FILLER_45_137
*1326 FILLER_45_149
*1327 FILLER_45_15
*1328 FILLER_45_161
*1329 FILLER_45_167
*1330 FILLER_45_169
*1331 FILLER_45_181
*1332 FILLER_45_193
*1333 FILLER_45_205
*1334 FILLER_45_217
*1335 FILLER_45_223
*1336 FILLER_45_225
*1337 FILLER_45_237
*1338 FILLER_45_249
*1339 FILLER_45_261
*1340 FILLER_45_273
*1341 FILLER_45_279
*1342 FILLER_45_281
*1343 FILLER_45_293
*1344 FILLER_45_3
*1345 FILLER_45_36
*1346 FILLER_45_48
*1347 FILLER_45_57
*1348 FILLER_45_69
*1349 FILLER_45_81
*1350 FILLER_45_93
*1351 FILLER_46_109
*1352 FILLER_46_121
*1353 FILLER_46_133
*1354 FILLER_46_139
*1355 FILLER_46_141
*1356 FILLER_46_153
*1357 FILLER_46_165
*1358 FILLER_46_177
*1359 FILLER_46_189
*1360 FILLER_46_195
*1361 FILLER_46_197
*1362 FILLER_46_209
*1363 FILLER_46_221
*1364 FILLER_46_233
*1365 FILLER_46_245
*1366 FILLER_46_251
*1367 FILLER_46_253
*1368 FILLER_46_26
*1369 FILLER_46_265
*1370 FILLER_46_277
*1371 FILLER_46_289
*1372 FILLER_46_29
*1373 FILLER_46_297
*1374 FILLER_46_3
*1375 FILLER_46_51
*1376 FILLER_46_63
*1377 FILLER_46_75
*1378 FILLER_46_83
*1379 FILLER_46_85
*1380 FILLER_46_9
*1381 FILLER_46_97
*1382 FILLER_47_105
*1383 FILLER_47_111
*1384 FILLER_47_113
*1385 FILLER_47_125
*1386 FILLER_47_137
*1387 FILLER_47_149
*1388 FILLER_47_161
*1389 FILLER_47_167
*1390 FILLER_47_169
*1391 FILLER_47_181
*1392 FILLER_47_193
*1393 FILLER_47_205
*1394 FILLER_47_217
*1395 FILLER_47_223
*1396 FILLER_47_225
*1397 FILLER_47_237
*1398 FILLER_47_249
*1399 FILLER_47_261
*1400 FILLER_47_273
*1401 FILLER_47_279
*1402 FILLER_47_281
*1403 FILLER_47_293
*1404 FILLER_47_3
*1405 FILLER_47_33
*1406 FILLER_47_53
*1407 FILLER_47_57
*1408 FILLER_47_69
*1409 FILLER_47_81
*1410 FILLER_47_9
*1411 FILLER_47_93
*1412 FILLER_48_109
*1413 FILLER_48_121
*1414 FILLER_48_133
*1415 FILLER_48_139
*1416 FILLER_48_141
*1417 FILLER_48_153
*1418 FILLER_48_165
*1419 FILLER_48_177
*1420 FILLER_48_189
*1421 FILLER_48_195
*1422 FILLER_48_197
*1423 FILLER_48_209
*1424 FILLER_48_221
*1425 FILLER_48_233
*1426 FILLER_48_245
*1427 FILLER_48_25
*1428 FILLER_48_251
*1429 FILLER_48_253
*1430 FILLER_48_265
*1431 FILLER_48_277
*1432 FILLER_48_289
*1433 FILLER_48_29
*1434 FILLER_48_297
*1435 FILLER_48_3
*1436 FILLER_48_48
*1437 FILLER_48_60
*1438 FILLER_48_72
*1439 FILLER_48_85
*1440 FILLER_48_97
*1441 FILLER_49_105
*1442 FILLER_49_111
*1443 FILLER_49_113
*1444 FILLER_49_125
*1445 FILLER_49_137
*1446 FILLER_49_149
*1447 FILLER_49_161
*1448 FILLER_49_167
*1449 FILLER_49_169
*1450 FILLER_49_181
*1451 FILLER_49_193
*1452 FILLER_49_205
*1453 FILLER_49_217
*1454 FILLER_49_223
*1455 FILLER_49_225
*1456 FILLER_49_237
*1457 FILLER_49_249
*1458 FILLER_49_261
*1459 FILLER_49_27
*1460 FILLER_49_273
*1461 FILLER_49_279
*1462 FILLER_49_281
*1463 FILLER_49_293
*1464 FILLER_49_3
*1465 FILLER_49_47
*1466 FILLER_49_55
*1467 FILLER_49_57
*1468 FILLER_49_69
*1469 FILLER_49_81
*1470 FILLER_49_93
*1471 FILLER_4_109
*1472 FILLER_4_121
*1473 FILLER_4_133
*1474 FILLER_4_139
*1475 FILLER_4_141
*1476 FILLER_4_15
*1477 FILLER_4_153
*1478 FILLER_4_165
*1479 FILLER_4_177
*1480 FILLER_4_189
*1481 FILLER_4_195
*1482 FILLER_4_197
*1483 FILLER_4_209
*1484 FILLER_4_221
*1485 FILLER_4_233
*1486 FILLER_4_245
*1487 FILLER_4_251
*1488 FILLER_4_253
*1489 FILLER_4_265
*1490 FILLER_4_27
*1491 FILLER_4_277
*1492 FILLER_4_289
*1493 FILLER_4_29
*1494 FILLER_4_297
*1495 FILLER_4_3
*1496 FILLER_4_41
*1497 FILLER_4_53
*1498 FILLER_4_65
*1499 FILLER_4_77
*1500 FILLER_4_83
*1501 FILLER_4_85
*1502 FILLER_4_97
*1503 FILLER_50_109
*1504 FILLER_50_121
*1505 FILLER_50_133
*1506 FILLER_50_139
*1507 FILLER_50_141
*1508 FILLER_50_153
*1509 FILLER_50_165
*1510 FILLER_50_177
*1511 FILLER_50_189
*1512 FILLER_50_195
*1513 FILLER_50_197
*1514 FILLER_50_209
*1515 FILLER_50_221
*1516 FILLER_50_233
*1517 FILLER_50_245
*1518 FILLER_50_251
*1519 FILLER_50_253
*1520 FILLER_50_26
*1521 FILLER_50_265
*1522 FILLER_50_277
*1523 FILLER_50_289
*1524 FILLER_50_29
*1525 FILLER_50_297
*1526 FILLER_50_3
*1527 FILLER_50_47
*1528 FILLER_50_59
*1529 FILLER_50_71
*1530 FILLER_50_83
*1531 FILLER_50_85
*1532 FILLER_50_9
*1533 FILLER_50_97
*1534 FILLER_51_105
*1535 FILLER_51_111
*1536 FILLER_51_113
*1537 FILLER_51_125
*1538 FILLER_51_137
*1539 FILLER_51_149
*1540 FILLER_51_161
*1541 FILLER_51_167
*1542 FILLER_51_169
*1543 FILLER_51_181
*1544 FILLER_51_193
*1545 FILLER_51_205
*1546 FILLER_51_217
*1547 FILLER_51_223
*1548 FILLER_51_225
*1549 FILLER_51_237
*1550 FILLER_51_249
*1551 FILLER_51_25
*1552 FILLER_51_261
*1553 FILLER_51_273
*1554 FILLER_51_279
*1555 FILLER_51_281
*1556 FILLER_51_293
*1557 FILLER_51_3
*1558 FILLER_51_37
*1559 FILLER_51_49
*1560 FILLER_51_55
*1561 FILLER_51_57
*1562 FILLER_51_69
*1563 FILLER_51_81
*1564 FILLER_51_93
*1565 FILLER_52_109
*1566 FILLER_52_121
*1567 FILLER_52_133
*1568 FILLER_52_139
*1569 FILLER_52_14
*1570 FILLER_52_141
*1571 FILLER_52_153
*1572 FILLER_52_165
*1573 FILLER_52_177
*1574 FILLER_52_189
*1575 FILLER_52_195
*1576 FILLER_52_197
*1577 FILLER_52_209
*1578 FILLER_52_21
*1579 FILLER_52_221
*1580 FILLER_52_233
*1581 FILLER_52_245
*1582 FILLER_52_251
*1583 FILLER_52_253
*1584 FILLER_52_265
*1585 FILLER_52_27
*1586 FILLER_52_277
*1587 FILLER_52_289
*1588 FILLER_52_29
*1589 FILLER_52_297
*1590 FILLER_52_3