*SPEF "ieee 1481-1999"
*DESIGN "user_module_362592986761938945"
*DATE "11:11:11 Fri 11 11, 1111"
*VENDOR "OpenRCX"
*PROGRAM "Parallel Extraction"
*VERSION "1.0"
*DESIGN_FLOW "NAME_SCOPE LOCAL" "PIN_CAP NONE"
*DIVIDER /
*DELIMITER :
*BUS_DELIMITER []
*T_UNIT 1 NS
*C_UNIT 1 PF
*R_UNIT 1 OHM
*L_UNIT 1 HENRY

*NAME_MAP
*1 io_in[0]
*2 io_in[1]
*3 io_in[2]
*4 io_in[3]
*5 io_in[4]
*6 io_in[5]
*7 io_in[6]
*8 io_in[7]
*9 io_out[0]
*10 io_out[1]
*11 net4
*12 net5
*13 net6
*14 net7
*15 net8
*16 net9
*19 _00_
*20 net1
*21 net2
*22 net3
*23 or1\.out
*24 or4\.out
*25 FILLER_0_109
*26 FILLER_0_113
*27 FILLER_0_125
*28 FILLER_0_137
*29 FILLER_0_141
*30 FILLER_0_15
*31 FILLER_0_153
*32 FILLER_0_165
*33 FILLER_0_169
*34 FILLER_0_181
*35 FILLER_0_193
*36 FILLER_0_197
*37 FILLER_0_209
*38 FILLER_0_221
*39 FILLER_0_225
*40 FILLER_0_237
*41 FILLER_0_249
*42 FILLER_0_253
*43 FILLER_0_265
*44 FILLER_0_27
*45 FILLER_0_277
*46 FILLER_0_281
*47 FILLER_0_29
*48 FILLER_0_293
*49 FILLER_0_3
*50 FILLER_0_41
*51 FILLER_0_53
*52 FILLER_0_57
*53 FILLER_0_69
*54 FILLER_0_81
*55 FILLER_0_85
*56 FILLER_0_97
*57 FILLER_10_109
*58 FILLER_10_121
*59 FILLER_10_133
*60 FILLER_10_139
*61 FILLER_10_141
*62 FILLER_10_15
*63 FILLER_10_153
*64 FILLER_10_165
*65 FILLER_10_177
*66 FILLER_10_189
*67 FILLER_10_195
*68 FILLER_10_197
*69 FILLER_10_209
*70 FILLER_10_221
*71 FILLER_10_233
*72 FILLER_10_245
*73 FILLER_10_251
*74 FILLER_10_253
*75 FILLER_10_265
*76 FILLER_10_27
*77 FILLER_10_277
*78 FILLER_10_289
*79 FILLER_10_29
*80 FILLER_10_297
*81 FILLER_10_3
*82 FILLER_10_41
*83 FILLER_10_53
*84 FILLER_10_65
*85 FILLER_10_77
*86 FILLER_10_83
*87 FILLER_10_85
*88 FILLER_10_97
*89 FILLER_11_105
*90 FILLER_11_111
*91 FILLER_11_113
*92 FILLER_11_12
*93 FILLER_11_125
*94 FILLER_11_137
*95 FILLER_11_149
*96 FILLER_11_161
*97 FILLER_11_167
*98 FILLER_11_169
*99 FILLER_11_181
*100 FILLER_11_193
*101 FILLER_11_205
*102 FILLER_11_217
*103 FILLER_11_223
*104 FILLER_11_225
*105 FILLER_11_237
*106 FILLER_11_24
*107 FILLER_11_249
*108 FILLER_11_261
*109 FILLER_11_273
*110 FILLER_11_279
*111 FILLER_11_281
*112 FILLER_11_293
*113 FILLER_11_3
*114 FILLER_11_36
*115 FILLER_11_48
*116 FILLER_11_57
*117 FILLER_11_69
*118 FILLER_11_81
*119 FILLER_11_93
*120 FILLER_12_109
*121 FILLER_12_12
*122 FILLER_12_121
*123 FILLER_12_133
*124 FILLER_12_139
*125 FILLER_12_141
*126 FILLER_12_153
*127 FILLER_12_165
*128 FILLER_12_177
*129 FILLER_12_189
*130 FILLER_12_19
*131 FILLER_12_195
*132 FILLER_12_197
*133 FILLER_12_209
*134 FILLER_12_221
*135 FILLER_12_233
*136 FILLER_12_245
*137 FILLER_12_251
*138 FILLER_12_253
*139 FILLER_12_265
*140 FILLER_12_27
*141 FILLER_12_277
*142 FILLER_12_289
*143 FILLER_12_29
*144 FILLER_12_297
*145 FILLER_12_3
*146 FILLER_12_41
*147 FILLER_12_53
*148 FILLER_12_65
*149 FILLER_12_77
*150 FILLER_12_83
*151 FILLER_12_85
*152 FILLER_12_97
*153 FILLER_13_105
*154 FILLER_13_11
*155 FILLER_13_111
*156 FILLER_13_113
*157 FILLER_13_125
*158 FILLER_13_137
*159 FILLER_13_149
*160 FILLER_13_161
*161 FILLER_13_167
*162 FILLER_13_169
*163 FILLER_13_181
*164 FILLER_13_193
*165 FILLER_13_205
*166 FILLER_13_217
*167 FILLER_13_223
*168 FILLER_13_225
*169 FILLER_13_23
*170 FILLER_13_237
*171 FILLER_13_249
*172 FILLER_13_261
*173 FILLER_13_273
*174 FILLER_13_279
*175 FILLER_13_281
*176 FILLER_13_293
*177 FILLER_13_3
*178 FILLER_13_35
*179 FILLER_13_47
*180 FILLER_13_55
*181 FILLER_13_57
*182 FILLER_13_69
*183 FILLER_13_81
*184 FILLER_13_93
*185 FILLER_14_109
*186 FILLER_14_121
*187 FILLER_14_133
*188 FILLER_14_139
*189 FILLER_14_141
*190 FILLER_14_153
*191 FILLER_14_165
*192 FILLER_14_177
*193 FILLER_14_189
*194 FILLER_14_195
*195 FILLER_14_197
*196 FILLER_14_209
*197 FILLER_14_21
*198 FILLER_14_221
*199 FILLER_14_233
*200 FILLER_14_245
*201 FILLER_14_251
*202 FILLER_14_253
*203 FILLER_14_265
*204 FILLER_14_27
*205 FILLER_14_277
*206 FILLER_14_289
*207 FILLER_14_29
*208 FILLER_14_297
*209 FILLER_14_3
*210 FILLER_14_41
*211 FILLER_14_53
*212 FILLER_14_65
*213 FILLER_14_77
*214 FILLER_14_83
*215 FILLER_14_85
*216 FILLER_14_9
*217 FILLER_14_97
*218 FILLER_15_105
*219 FILLER_15_111
*220 FILLER_15_113
*221 FILLER_15_125
*222 FILLER_15_137
*223 FILLER_15_149
*224 FILLER_15_161
*225 FILLER_15_167
*226 FILLER_15_169
*227 FILLER_15_181
*228 FILLER_15_193
*229 FILLER_15_205
*230 FILLER_15_21
*231 FILLER_15_217
*232 FILLER_15_223
*233 FILLER_15_225
*234 FILLER_15_237
*235 FILLER_15_249
*236 FILLER_15_261
*237 FILLER_15_273
*238 FILLER_15_279
*239 FILLER_15_281
*240 FILLER_15_293
*241 FILLER_15_3
*242 FILLER_15_33
*243 FILLER_15_45
*244 FILLER_15_53
*245 FILLER_15_57
*246 FILLER_15_69
*247 FILLER_15_81
*248 FILLER_15_9
*249 FILLER_15_93
*250 FILLER_16_109
*251 FILLER_16_121
*252 FILLER_16_133
*253 FILLER_16_139
*254 FILLER_16_141
*255 FILLER_16_15
*256 FILLER_16_153
*257 FILLER_16_165
*258 FILLER_16_177
*259 FILLER_16_189
*260 FILLER_16_195
*261 FILLER_16_197
*262 FILLER_16_209
*263 FILLER_16_221
*264 FILLER_16_233
*265 FILLER_16_245
*266 FILLER_16_251
*267 FILLER_16_253
*268 FILLER_16_265
*269 FILLER_16_27
*270 FILLER_16_277
*271 FILLER_16_289
*272 FILLER_16_29
*273 FILLER_16_297
*274 FILLER_16_3
*275 FILLER_16_41
*276 FILLER_16_53
*277 FILLER_16_65
*278 FILLER_16_77
*279 FILLER_16_83
*280 FILLER_16_85
*281 FILLER_16_97
*282 FILLER_17_105
*283 FILLER_17_111
*284 FILLER_17_113
*285 FILLER_17_125
*286 FILLER_17_137
*287 FILLER_17_149
*288 FILLER_17_15
*289 FILLER_17_161
*290 FILLER_17_167
*291 FILLER_17_169
*292 FILLER_17_181
*293 FILLER_17_193
*294 FILLER_17_205
*295 FILLER_17_217
*296 FILLER_17_223
*297 FILLER_17_225
*298 FILLER_17_237
*299 FILLER_17_249
*300 FILLER_17_261
*301 FILLER_17_27
*302 FILLER_17_273
*303 FILLER_17_279
*304 FILLER_17_281
*305 FILLER_17_293
*306 FILLER_17_3
*307 FILLER_17_39
*308 FILLER_17_51
*309 FILLER_17_55
*310 FILLER_17_57
*311 FILLER_17_69
*312 FILLER_17_81
*313 FILLER_17_93
*314 FILLER_18_109
*315 FILLER_18_121
*316 FILLER_18_133
*317 FILLER_18_139
*318 FILLER_18_141
*319 FILLER_18_15
*320 FILLER_18_153
*321 FILLER_18_165
*322 FILLER_18_177
*323 FILLER_18_189
*324 FILLER_18_195
*325 FILLER_18_197
*326 FILLER_18_209
*327 FILLER_18_221
*328 FILLER_18_233
*329 FILLER_18_245
*330 FILLER_18_251
*331 FILLER_18_253
*332 FILLER_18_265
*333 FILLER_18_27
*334 FILLER_18_277
*335 FILLER_18_289
*336 FILLER_18_29
*337 FILLER_18_297
*338 FILLER_18_3
*339 FILLER_18_41
*340 FILLER_18_53
*341 FILLER_18_65
*342 FILLER_18_77
*343 FILLER_18_83
*344 FILLER_18_85
*345 FILLER_18_97
*346 FILLER_19_105
*347 FILLER_19_111
*348 FILLER_19_113
*349 FILLER_19_125
*350 FILLER_19_137
*351 FILLER_19_149
*352 FILLER_19_15
*353 FILLER_19_161
*354 FILLER_19_167
*355 FILLER_19_169
*356 FILLER_19_181
*357 FILLER_19_193
*358 FILLER_19_205
*359 FILLER_19_217
*360 FILLER_19_223
*361 FILLER_19_225
*362 FILLER_19_237
*363 FILLER_19_249
*364 FILLER_19_261
*365 FILLER_19_27
*366 FILLER_19_273
*367 FILLER_19_279
*368 FILLER_19_281
*369 FILLER_19_293
*370 FILLER_19_3
*371 FILLER_19_39
*372 FILLER_19_51
*373 FILLER_19_55
*374 FILLER_19_57
*375 FILLER_19_69
*376 FILLER_19_81
*377 FILLER_19_93
*378 FILLER_1_105
*379 FILLER_1_111
*380 FILLER_1_113
*381 FILLER_1_125
*382 FILLER_1_137
*383 FILLER_1_149
*384 FILLER_1_15
*385 FILLER_1_161
*386 FILLER_1_167
*387 FILLER_1_169
*388 FILLER_1_181
*389 FILLER_1_193
*390 FILLER_1_205
*391 FILLER_1_217
*392 FILLER_1_223
*393 FILLER_1_225
*394 FILLER_1_237
*395 FILLER_1_249
*396 FILLER_1_261
*397 FILLER_1_27
*398 FILLER_1_273
*399 FILLER_1_279
*400 FILLER_1_281
*401 FILLER_1_293
*402 FILLER_1_3
*403 FILLER_1_39
*404 FILLER_1_51
*405 FILLER_1_55
*406 FILLER_1_57
*407 FILLER_1_69
*408 FILLER_1_81
*409 FILLER_1_93
*410 FILLER_20_109
*411 FILLER_20_121
*412 FILLER_20_133
*413 FILLER_20_139
*414 FILLER_20_141
*415 FILLER_20_15
*416 FILLER_20_153
*417 FILLER_20_165
*418 FILLER_20_177
*419 FILLER_20_189
*420 FILLER_20_195
*421 FILLER_20_197
*422 FILLER_20_209
*423 FILLER_20_221
*424 FILLER_20_233
*425 FILLER_20_245
*426 FILLER_20_251
*427 FILLER_20_253
*428 FILLER_20_265
*429 FILLER_20_27
*430 FILLER_20_277
*431 FILLER_20_289
*432 FILLER_20_29
*433 FILLER_20_297
*434 FILLER_20_3
*435 FILLER_20_41
*436 FILLER_20_53
*437 FILLER_20_65
*438 FILLER_20_77
*439 FILLER_20_83
*440 FILLER_20_85
*441 FILLER_20_97
*442 FILLER_21_105
*443 FILLER_21_111
*444 FILLER_21_113
*445 FILLER_21_125
*446 FILLER_21_137
*447 FILLER_21_149
*448 FILLER_21_15
*449 FILLER_21_161
*450 FILLER_21_167
*451 FILLER_21_169
*452 FILLER_21_181
*453 FILLER_21_193
*454 FILLER_21_205
*455 FILLER_21_217
*456 FILLER_21_223
*457 FILLER_21_225
*458 FILLER_21_237
*459 FILLER_21_249
*460 FILLER_21_261
*461 FILLER_21_27
*462 FILLER_21_273
*463 FILLER_21_279
*464 FILLER_21_281
*465 FILLER_21_293
*466 FILLER_21_3
*467 FILLER_21_39
*468 FILLER_21_51
*469 FILLER_21_55
*470 FILLER_21_57
*471 FILLER_21_69
*472 FILLER_21_81
*473 FILLER_21_93
*474 FILLER_22_109
*475 FILLER_22_121
*476 FILLER_22_133
*477 FILLER_22_139
*478 FILLER_22_141
*479 FILLER_22_15
*480 FILLER_22_153
*481 FILLER_22_165
*482 FILLER_22_177
*483 FILLER_22_189
*484 FILLER_22_195
*485 FILLER_22_197
*486 FILLER_22_209
*487 FILLER_22_221
*488 FILLER_22_233
*489 FILLER_22_245
*490 FILLER_22_251
*491 FILLER_22_253
*492 FILLER_22_265
*493 FILLER_22_27
*494 FILLER_22_277
*495 FILLER_22_289
*496 FILLER_22_29
*497 FILLER_22_297
*498 FILLER_22_3
*499 FILLER_22_41
*500 FILLER_22_53
*501 FILLER_22_65
*502 FILLER_22_77
*503 FILLER_22_83
*504 FILLER_22_85
*505 FILLER_22_97
*506 FILLER_23_105
*507 FILLER_23_111
*508 FILLER_23_113
*509 FILLER_23_125
*510 FILLER_23_137
*511 FILLER_23_149
*512 FILLER_23_15
*513 FILLER_23_161
*514 FILLER_23_167
*515 FILLER_23_169
*516 FILLER_23_181
*517 FILLER_23_193
*518 FILLER_23_205
*519 FILLER_23_217
*520 FILLER_23_223
*521 FILLER_23_225
*522 FILLER_23_237
*523 FILLER_23_249
*524 FILLER_23_261
*525 FILLER_23_27
*526 FILLER_23_273
*527 FILLER_23_279
*528 FILLER_23_281
*529 FILLER_23_293
*530 FILLER_23_3
*531 FILLER_23_39
*532 FILLER_23_51
*533 FILLER_23_55
*534 FILLER_23_57
*535 FILLER_23_69
*536 FILLER_23_81
*537 FILLER_23_93
*538 FILLER_24_109
*539 FILLER_24_121
*540 FILLER_24_133
*541 FILLER_24_139
*542 FILLER_24_141
*543 FILLER_24_15
*544 FILLER_24_153
*545 FILLER_24_165
*546 FILLER_24_177
*547 FILLER_24_189
*548 FILLER_24_195
*549 FILLER_24_197
*550 FILLER_24_209
*551 FILLER_24_221
*552 FILLER_24_233
*553 FILLER_24_245
*554 FILLER_24_251
*555 FILLER_24_253
*556 FILLER_24_265
*557 FILLER_24_27
*558 FILLER_24_277
*559 FILLER_24_289
*560 FILLER_24_29
*561 FILLER_24_297
*562 FILLER_24_3
*563 FILLER_24_41
*564 FILLER_24_53
*565 FILLER_24_65
*566 FILLER_24_77
*567 FILLER_24_83
*568 FILLER_24_85
*569 FILLER_24_97
*570 FILLER_25_105
*571 FILLER_25_111
*572 FILLER_25_113
*573 FILLER_25_125
*574 FILLER_25_137
*575 FILLER_25_149
*576 FILLER_25_15
*577 FILLER_25_161
*578 FILLER_25_167
*579 FILLER_25_169
*580 FILLER_25_181
*581 FILLER_25_193
*582 FILLER_25_205
*583 FILLER_25_217
*584 FILLER_25_223
*585 FILLER_25_225
*586 FILLER_25_237
*587 FILLER_25_249
*588 FILLER_25_261
*589 FILLER_25_27
*590 FILLER_25_273
*591 FILLER_25_279
*592 FILLER_25_281
*593 FILLER_25_293
*594 FILLER_25_3
*595 FILLER_25_39
*596 FILLER_25_51
*597 FILLER_25_55
*598 FILLER_25_57
*599 FILLER_25_69
*600 FILLER_25_81
*601 FILLER_25_93
*602 FILLER_26_109
*603 FILLER_26_121
*604 FILLER_26_133
*605 FILLER_26_139
*606 FILLER_26_141
*607 FILLER_26_15
*608 FILLER_26_153
*609 FILLER_26_165
*610 FILLER_26_177
*611 FILLER_26_189
*612 FILLER_26_195
*613 FILLER_26_197
*614 FILLER_26_209
*615 FILLER_26_221
*616 FILLER_26_233
*617 FILLER_26_245
*618 FILLER_26_251
*619 FILLER_26_253
*620 FILLER_26_265
*621 FILLER_26_27
*622 FILLER_26_277
*623 FILLER_26_289
*624 FILLER_26_29
*625 FILLER_26_297
*626 FILLER_26_3
*627 FILLER_26_41
*628 FILLER_26_53
*629 FILLER_26_65
*630 FILLER_26_77
*631 FILLER_26_83
*632 FILLER_26_85
*633 FILLER_26_97
*634 FILLER_27_105
*635 FILLER_27_111
*636 FILLER_27_113
*637 FILLER_27_125
*638 FILLER_27_137
*639 FILLER_27_149
*640 FILLER_27_15
*641 FILLER_27_161
*642 FILLER_27_167
*643 FILLER_27_169
*644 FILLER_27_181
*645 FILLER_27_193
*646 FILLER_27_205
*647 FILLER_27_217
*648 FILLER_27_223
*649 FILLER_27_225
*650 FILLER_27_237
*651 FILLER_27_249
*652 FILLER_27_261
*653 FILLER_27_27
*654 FILLER_27_273
*655 FILLER_27_279
*656 FILLER_27_281
*657 FILLER_27_293
*658 FILLER_27_3
*659 FILLER_27_39
*660 FILLER_27_51
*661 FILLER_27_55
*662 FILLER_27_57
*663 FILLER_27_69
*664 FILLER_27_81
*665 FILLER_27_93
*666 FILLER_28_109
*667 FILLER_28_121
*668 FILLER_28_133
*669 FILLER_28_139
*670 FILLER_28_141
*671 FILLER_28_15
*672 FILLER_28_153
*673 FILLER_28_165
*674 FILLER_28_177
*675 FILLER_28_189
*676 FILLER_28_195
*677 FILLER_28_197
*678 FILLER_28_209
*679 FILLER_28_221
*680 FILLER_28_233
*681 FILLER_28_245
*682 FILLER_28_251
*683 FILLER_28_253
*684 FILLER_28_265
*685 FILLER_28_27
*686 FILLER_28_277
*687 FILLER_28_289
*688 FILLER_28_29
*689 FILLER_28_297
*690 FILLER_28_3
*691 FILLER_28_41
*692 FILLER_28_53
*693 FILLER_28_65
*694 FILLER_28_77
*695 FILLER_28_83
*696 FILLER_28_85
*697 FILLER_28_97
*698 FILLER_29_105
*699 FILLER_29_111
*700 FILLER_29_113
*701 FILLER_29_125
*702 FILLER_29_137
*703 FILLER_29_149
*704 FILLER_29_15
*705 FILLER_29_161
*706 FILLER_29_167
*707 FILLER_29_169
*708 FILLER_29_181
*709 FILLER_29_193
*710 FILLER_29_205
*711 FILLER_29_217
*712 FILLER_29_223
*713 FILLER_29_225
*714 FILLER_29_237
*715 FILLER_29_249
*716 FILLER_29_261
*717 FILLER_29_27
*718 FILLER_29_273
*719 FILLER_29_279
*720 FILLER_29_281
*721 FILLER_29_293
*722 FILLER_29_3
*723 FILLER_29_39
*724 FILLER_29_51
*725 FILLER_29_55
*726 FILLER_29_57
*727 FILLER_29_69
*728 FILLER_29_81
*729 FILLER_29_93
*730 FILLER_2_109
*731 FILLER_2_121
*732 FILLER_2_133
*733 FILLER_2_139
*734 FILLER_2_141
*735 FILLER_2_15
*736 FILLER_2_153
*737 FILLER_2_165
*738 FILLER_2_177
*739 FILLER_2_189
*740 FILLER_2_195
*741 FILLER_2_197
*742 FILLER_2_209
*743 FILLER_2_221
*744 FILLER_2_233
*745 FILLER_2_245
*746 FILLER_2_251
*747 FILLER_2_253
*748 FILLER_2_265
*749 FILLER_2_27
*750 FILLER_2_277
*751 FILLER_2_289
*752 FILLER_2_29
*753 FILLER_2_297
*754 FILLER_2_3
*755 FILLER_2_41
*756 FILLER_2_53
*757 FILLER_2_65
*758 FILLER_2_77
*759 FILLER_2_83
*760 FILLER_2_85
*761 FILLER_2_97
*762 FILLER_30_109
*763 FILLER_30_121
*764 FILLER_30_133
*765 FILLER_30_139
*766 FILLER_30_141
*767 FILLER_30_15
*768 FILLER_30_153
*769 FILLER_30_165
*770 FILLER_30_177
*771 FILLER_30_189
*772 FILLER_30_195
*773 FILLER_30_197
*774 FILLER_30_209
*775 FILLER_30_221
*776 FILLER_30_233
*777 FILLER_30_245
*778 FILLER_30_251
*779 FILLER_30_253
*780 FILLER_30_265
*781 FILLER_30_27
*782 FILLER_30_277
*783 FILLER_30_289
*784 FILLER_30_29
*785 FILLER_30_297
*786 FILLER_30_3
*787 FILLER_30_41
*788 FILLER_30_53
*789 FILLER_30_65
*790 FILLER_30_77
*791 FILLER_30_83
*792 FILLER_30_85
*793 FILLER_30_97
*794 FILLER_31_105
*795 FILLER_31_111
*796 FILLER_31_113
*797 FILLER_31_125
*798 FILLER_31_137
*799 FILLER_31_149
*800 FILLER_31_15
*801 FILLER_31_161
*802 FILLER_31_167
*803 FILLER_31_169
*804 FILLER_31_181
*805 FILLER_31_193
*806 FILLER_31_205
*807 FILLER_31_217
*808 FILLER_31_223
*809 FILLER_31_225
*810 FILLER_31_237
*811 FILLER_31_249
*812 FILLER_31_261
*813 FILLER_31_27
*814 FILLER_31_273
*815 FILLER_31_279
*816 FILLER_31_281
*817 FILLER_31_293
*818 FILLER_31_3
*819 FILLER_31_39
*820 FILLER_31_51
*821 FILLER_31_55
*822 FILLER_31_57
*823 FILLER_31_69
*824 FILLER_31_81
*825 FILLER_31_93
*826 FILLER_32_109
*827 FILLER_32_121
*828 FILLER_32_133
*829 FILLER_32_139
*830 FILLER_32_141
*831 FILLER_32_15
*832 FILLER_32_153
*833 FILLER_32_165
*834 FILLER_32_177
*835 FILLER_32_189
*836 FILLER_32_195
*837 FILLER_32_197
*838 FILLER_32_209
*839 FILLER_32_221
*840 FILLER_32_233
*841 FILLER_32_245
*842 FILLER_32_251
*843 FILLER_32_253
*844 FILLER_32_265
*845 FILLER_32_27
*846 FILLER_32_277
*847 FILLER_32_289
*848 FILLER_32_29
*849 FILLER_32_297
*850 FILLER_32_3
*851 FILLER_32_41
*852 FILLER_32_53
*853 FILLER_32_65
*854 FILLER_32_77
*855 FILLER_32_83
*856 FILLER_32_85
*857 FILLER_32_97
*858 FILLER_33_105
*859 FILLER_33_111
*860 FILLER_33_113
*861 FILLER_33_125
*862 FILLER_33_137
*863 FILLER_33_149
*864 FILLER_33_15
*865 FILLER_33_161
*866 FILLER_33_167
*867 FILLER_33_169
*868 FILLER_33_181
*869 FILLER_33_193
*870 FILLER_33_205
*871 FILLER_33_217
*872 FILLER_33_223
*873 FILLER_33_225
*874 FILLER_33_237
*875 FILLER_33_249
*876 FILLER_33_261
*877 FILLER_33_27
*878 FILLER_33_273
*879 FILLER_33_279
*880 FILLER_33_281
*881 FILLER_33_293
*882 FILLER_33_3
*883 FILLER_33_39
*884 FILLER_33_51
*885 FILLER_33_55
*886 FILLER_33_57
*887 FILLER_33_69
*888 FILLER_33_81
*889 FILLER_33_93
*890 FILLER_34_109
*891 FILLER_34_121
*892 FILLER_34_133
*893 FILLER_34_139
*894 FILLER_34_141
*895 FILLER_34_15
*896 FILLER_34_153
*897 FILLER_34_165
*898 FILLER_34_177
*899 FILLER_34_189
*900 FILLER_34_195
*901 FILLER_34_197
*902 FILLER_34_209
*903 FILLER_34_221
*904 FILLER_34_233
*905 FILLER_34_245
*906 FILLER_34_251
*907 FILLER_34_253
*908 FILLER_34_265
*909 FILLER_34_27
*910 FILLER_34_277
*911 FILLER_34_289
*912 FILLER_34_29
*913 FILLER_34_297
*914 FILLER_34_3
*915 FILLER_34_41
*916 FILLER_34_53
*917 FILLER_34_65
*918 FILLER_34_77
*919 FILLER_34_83
*920 FILLER_34_85
*921 FILLER_34_97
*922 FILLER_35_105
*923 FILLER_35_111
*924 FILLER_35_113
*925 FILLER_35_125
*926 FILLER_35_137
*927 FILLER_35_149
*928 FILLER_35_15
*929 FILLER_35_161
*930 FILLER_35_167
*931 FILLER_35_169
*932 FILLER_35_181
*933 FILLER_35_193
*934 FILLER_35_205
*935 FILLER_35_217
*936 FILLER_35_223
*937 FILLER_35_225
*938 FILLER_35_237
*939 FILLER_35_249
*940 FILLER_35_261
*941 FILLER_35_27
*942 FILLER_35_273
*943 FILLER_35_279
*944 FILLER_35_281
*945 FILLER_35_293
*946 FILLER_35_3
*947 FILLER_35_39
*948 FILLER_35_51
*949 FILLER_35_55
*950 FILLER_35_57
*951 FILLER_35_69
*952 FILLER_35_81
*953 FILLER_35_93
*954 FILLER_36_109
*955 FILLER_36_121
*956 FILLER_36_133
*957 FILLER_36_139
*958 FILLER_36_141
*959 FILLER_36_15
*960 FILLER_36_153
*961 FILLER_36_165
*962 FILLER_36_177
*963 FILLER_36_189
*964 FILLER_36_195
*965 FILLER_36_197
*966 FILLER_36_209
*967 FILLER_36_221
*968 FILLER_36_233
*969 FILLER_36_245
*970 FILLER_36_251
*971 FILLER_36_253
*972 FILLER_36_265
*973 FILLER_36_27
*974 FILLER_36_277
*975 FILLER_36_289
*976 FILLER_36_29
*977 FILLER_36_297
*978 FILLER_36_3
*979 FILLER_36_41
*980 FILLER_36_53
*981 FILLER_36_65
*982 FILLER_36_77
*983 FILLER_36_83
*984 FILLER_36_85
*985 FILLER_36_97
*986 FILLER_37_105
*987 FILLER_37_111
*988 FILLER_37_113
*989 FILLER_37_125
*990 FILLER_37_137
*991 FILLER_37_149
*992 FILLER_37_15
*993 FILLER_37_161
*994 FILLER_37_167
*995 FILLER_37_169
*996 FILLER_37_181
*997 FILLER_37_193
*998 FILLER_37_205
*999 FILLER_37_217
*1000 FILLER_37_223
*1001 FILLER_37_225
*1002 FILLER_37_237
*1003 FILLER_37_249
*1004 FILLER_37_261
*1005 FILLER_37_27
*1006 FILLER_37_273
*1007 FILLER_37_279
*1008 FILLER_37_281
*1009 FILLER_37_293
*1010 FILLER_37_3
*1011 FILLER_37_39
*1012 FILLER_37_51
*1013 FILLER_37_55
*1014 FILLER_37_57
*1015 FILLER_37_69
*1016 FILLER_37_81
*1017 FILLER_37_93
*1018 FILLER_38_109
*1019 FILLER_38_121
*1020 FILLER_38_133
*1021 FILLER_38_139
*1022 FILLER_38_141
*1023 FILLER_38_15
*1024 FILLER_38_153
*1025 FILLER_38_165
*1026 FILLER_38_177
*1027 FILLER_38_189
*1028 FILLER_38_195
*1029 FILLER_38_197
*1030 FILLER_38_209
*1031 FILLER_38_221
*1032 FILLER_38_233
*1033 FILLER_38_245
*1034 FILLER_38_251
*1035 FILLER_38_253
*1036 FILLER_38_265
*1037 FILLER_38_27
*1038 FILLER_38_277
*1039 FILLER_38_289
*1040 FILLER_38_29
*1041 FILLER_38_297
*1042 FILLER_38_3
*1043 FILLER_38_41
*1044 FILLER_38_53
*1045 FILLER_38_65
*1046 FILLER_38_77
*1047 FILLER_38_83
*1048 FILLER_38_85
*1049 FILLER_38_97
*1050 FILLER_39_105
*1051 FILLER_39_111
*1052 FILLER_39_113
*1053 FILLER_39_125
*1054 FILLER_39_137
*1055 FILLER_39_149
*1056 FILLER_39_161
*1057 FILLER_39_167
*1058 FILLER_39_169
*1059 FILLER_39_181
*1060 FILLER_39_193
*1061 FILLER_39_20
*1062 FILLER_39_205
*1063 FILLER_39_217
*1064 FILLER_39_223
*1065 FILLER_39_225
*1066 FILLER_39_237
*1067 FILLER_39_249
*1068 FILLER_39_261
*1069 FILLER_39_273
*1070 FILLER_39_279
*1071 FILLER_39_281
*1072 FILLER_39_293
*1073 FILLER_39_3
*1074 FILLER_39_32
*1075 FILLER_39_44
*1076 FILLER_39_57
*1077 FILLER_39_69
*1078 FILLER_39_8
*1079 FILLER_39_81
*1080 FILLER_39_93
*1081 FILLER_3_105
*1082 FILLER_3_111
*1083 FILLER_3_113
*1084 FILLER_3_125
*1085 FILLER_3_137
*1086 FILLER_3_149
*1087 FILLER_3_15
*1088 FILLER_3_161
*1089 FILLER_3_167
*1090 FILLER_3_169
*1091 FILLER_3_181
*1092 FILLER_3_193
*1093 FILLER_3_205
*1094 FILLER_3_217
*1095 FILLER_3_223
*1096 FILLER_3_225
*1097 FILLER_3_237
*1098 FILLER_3_249
*1099 FILLER_3_261
*1100 FILLER_3_27
*1101 FILLER_3_273
*1102 FILLER_3_279
*1103 FILLER_3_281
*1104 FILLER_3_293
*1105 FILLER_3_3
*1106 FILLER_3_39
*1107 FILLER_3_51
*1108 FILLER_3_55
*1109 FILLER_3_57
*1110 FILLER_3_69
*1111 FILLER_3_81
*1112 FILLER_3_93
*1113 FILLER_40_109
*1114 FILLER_40_121
*1115 FILLER_40_133
*1116 FILLER_40_139
*1117 FILLER_40_141
*1118 FILLER_40_15
*1119 FILLER_40_153
*1120 FILLER_40_165
*1121 FILLER_40_177
*1122 FILLER_40_189
*1123 FILLER_40_195
*1124 FILLER_40_197
*1125 FILLER_40_209
*1126 FILLER_40_221
*1127 FILLER_40_233
*1128 FILLER_40_245
*1129 FILLER_40_251
*1130 FILLER_40_253
*1131 FILLER_40_265
*1132 FILLER_40_27
*1133 FILLER_40_277
*1134 FILLER_40_289
*1135 FILLER_40_29
*1136 FILLER_40_297
*1137 FILLER_40_3
*1138 FILLER_40_41
*1139 FILLER_40_53
*1140 FILLER_40_65
*1141 FILLER_40_77
*1142 FILLER_40_83
*1143 FILLER_40_85
*1144 FILLER_40_97
*1145 FILLER_41_105
*1146 FILLER_41_111
*1147 FILLER_41_113
*1148 FILLER_41_125
*1149 FILLER_41_137
*1150 FILLER_41_149
*1151 FILLER_41_15
*1152 FILLER_41_161
*1153 FILLER_41_167
*1154 FILLER_41_169
*1155 FILLER_41_181
*1156 FILLER_41_193
*1157 FILLER_41_205
*1158 FILLER_41_217
*1159 FILLER_41_223
*1160 FILLER_41_225
*1161 FILLER_41_237
*1162 FILLER_41_249
*1163 FILLER_41_261
*1164 FILLER_41_27
*1165 FILLER_41_273
*1166 FILLER_41_279
*1167 FILLER_41_281
*1168 FILLER_41_293
*1169 FILLER_41_3
*1170 FILLER_41_39
*1171 FILLER_41_51
*1172 FILLER_41_55
*1173 FILLER_41_57
*1174 FILLER_41_69
*1175 FILLER_41_81
*1176 FILLER_41_93
*1177 FILLER_42_109
*1178 FILLER_42_121
*1179 FILLER_42_133
*1180 FILLER_42_139
*1181 FILLER_42_141
*1182 FILLER_42_153
*1183 FILLER_42_165
*1184 FILLER_42_177
*1185 FILLER_42_189
*1186 FILLER_42_195
*1187 FILLER_42_197
*1188 FILLER_42_20
*1189 FILLER_42_209
*1190 FILLER_42_221
*1191 FILLER_42_233
*1192 FILLER_42_245
*1193 FILLER_42_251
*1194 FILLER_42_253
*1195 FILLER_42_265
*1196 FILLER_42_277
*1197 FILLER_42_289
*1198 FILLER_42_29
*1199 FILLER_42_297
*1200 FILLER_42_3
*1201 FILLER_42_41
*1202 FILLER_42_53
*1203 FILLER_42_65
*1204 FILLER_42_77
*1205 FILLER_42_8
*1206 FILLER_42_83
*1207 FILLER_42_85
*1208 FILLER_42_97
*1209 FILLER_43_105
*1210 FILLER_43_111
*1211 FILLER_43_113
*1212 FILLER_43_125
*1213 FILLER_43_137
*1214 FILLER_43_149
*1215 FILLER_43_15
*1216 FILLER_43_161
*1217 FILLER_43_167
*1218 FILLER_43_169
*1219 FILLER_43_181
*1220 FILLER_43_193
*1221 FILLER_43_205
*1222 FILLER_43_217
*1223 FILLER_43_223
*1224 FILLER_43_225
*1225 FILLER_43_237
*1226 FILLER_43_249
*1227 FILLER_43_261
*1228 FILLER_43_27
*1229 FILLER_43_273
*1230 FILLER_43_279
*1231 FILLER_43_281
*1232 FILLER_43_293
*1233 FILLER_43_3
*1234 FILLER_43_39
*1235 FILLER_43_51
*1236 FILLER_43_55
*1237 FILLER_43_57
*1238 FILLER_43_69
*1239 FILLER_43_81
*1240 FILLER_43_93
*1241 FILLER_44_109
*1242 FILLER_44_121
*1243 FILLER_44_133
*1244 FILLER_44_139
*1245 FILLER_44_141
*1246 FILLER_44_15
*1247 FILLER_44_153
*1248 FILLER_44_165
*1249 FILLER_44_177
*1250 FILLER_44_189
*1251 FILLER_44_195
*1252 FILLER_44_197
*1253 FILLER_44_209
*1254 FILLER_44_221
*1255 FILLER_44_233
*1256 FILLER_44_245
*1257 FILLER_44_251
*1258 FILLER_44_253
*1259 FILLER_44_265
*1260 FILLER_44_27
*1261 FILLER_44_277
*1262 FILLER_44_289
*1263 FILLER_44_29
*1264 FILLER_44_297
*1265 FILLER_44_3
*1266 FILLER_44_41
*1267 FILLER_44_53
*1268 FILLER_44_65
*1269 FILLER_44_77
*1270 FILLER_44_83
*1271 FILLER_44_85
*1272 FILLER_44_97
*1273 FILLER_45_105
*1274 FILLER_45_111
*1275 FILLER_45_113
*1276 FILLER_45_125
*1277 FILLER_45_137
*1278 FILLER_45_149
*1279 FILLER_45_15
*1280 FILLER_45_161
*1281 FILLER_45_167
*1282 FILLER_45_169
*1283 FILLER_45_181
*1284 FILLER_45_193
*1285 FILLER_45_205
*1286 FILLER_45_217
*1287 FILLER_45_223
*1288 FILLER_45_225
*1289 FILLER_45_237
*1290 FILLER_45_249
*1291 FILLER_45_261
*1292 FILLER_45_27
*1293 FILLER_45_273
*1294 FILLER_45_279
*1295 FILLER_45_281
*1296 FILLER_45_293
*1297 FILLER_45_3
*1298 FILLER_45_39
*1299 FILLER_45_51
*1300 FILLER_45_55
*1301 FILLER_45_57
*1302 FILLER_45_69
*1303 FILLER_45_81
*1304 FILLER_45_93
*1305 FILLER_46_109
*1306 FILLER_46_121
*1307 FILLER_46_133
*1308 FILLER_46_139
*1309 FILLER_46_141
*1310 FILLER_46_153
*1311 FILLER_46_165
*1312 FILLER_46_177
*1313 FILLER_46_189
*1314 FILLER_46_195
*1315 FILLER_46_197
*1316 FILLER_46_20
*1317 FILLER_46_209
*1318 FILLER_46_221
*1319 FILLER_46_233
*1320 FILLER_46_245
*1321 FILLER_46_251
*1322 FILLER_46_253
*1323 FILLER_46_265
*1324 FILLER_46_277
*1325 FILLER_46_289
*1326 FILLER_46_29
*1327 FILLER_46_297
*1328 FILLER_46_3
*1329 FILLER_46_41
*1330 FILLER_46_53
*1331 FILLER_46_65
*1332 FILLER_46_77
*1333 FILLER_46_8
*1334 FILLER_46_83
*1335 FILLER_46_85
*1336 FILLER_46_97
*1337 FILLER_47_105
*1338 FILLER_47_111
*1339 FILLER_47_113
*1340 FILLER_47_125
*1341 FILLER_47_137
*1342 FILLER_47_149
*1343 FILLER_47_15
*1344 FILLER_47_161
*1345 FILLER_47_167
*1346 FILLER_47_169
*1347 FILLER_47_181
*1348 FILLER_47_193
*1349 FILLER_47_205
*1350 FILLER_47_217
*1351 FILLER_47_223
*1352 FILLER_47_225
*1353 FILLER_47_237
*1354 FILLER_47_249
*1355 FILLER_47_261
*1356 FILLER_47_27
*1357 FILLER_47_273
*1358 FILLER_47_279
*1359 FILLER_47_281
*1360 FILLER_47_293
*1361 FILLER_47_3
*1362 FILLER_47_39
*1363 FILLER_47_51
*1364 FILLER_47_55
*1365 FILLER_47_57
*1366 FILLER_47_69
*1367 FILLER_47_81
*1368 FILLER_47_93
*1369 FILLER_48_109
*1370 FILLER_48_121
*1371 FILLER_48_133
*1372 FILLER_48_139
*1373 FILLER_48_141
*1374 FILLER_48_15
*1375 FILLER_48_153
*1376 FILLER_48_165
*1377 FILLER_48_177
*1378 FILLER_48_189
*1379 FILLER_48_195
*1380 FILLER_48_197
*1381 FILLER_48_209
*1382 FILLER_48_221
*1383 FILLER_48_233
*1384 FILLER_48_245
*1385 FILLER_48_251
*1386 FILLER_48_253
*1387 FILLER_48_265
*1388 FILLER_48_27
*1389 FILLER_48_277
*1390 FILLER_48_289
*1391 FILLER_48_29
*1392 FILLER_48_297
*1393 FILLER_48_3
*1394 FILLER_48_41
*1395 FILLER_48_53
*1396 FILLER_48_65
*1397 FILLER_48_77
*1398 FILLER_48_83
*1399 FILLER_48_85
*1400 FILLER_48_97
*1401 FILLER_49_105
*1402 FILLER_49_111
*1403 FILLER_49_113
*1404 FILLER_49_125
*1405 FILLER_49_137
*1406 FILLER_49_149
*1407 FILLER_49_15
*1408 FILLER_49_161
*1409 FILLER_49_167
*1410 FILLER_49_169
*1411 FILLER_49_181
*1412 FILLER_49_193
*1413 FILLER_49_205
*1414 FILLER_49_217
*1415 FILLER_49_223
*1416 FILLER_49_225
*1417 FILLER_49_237
*1418 FILLER_49_249
*1419 FILLER_49_261
*1420 FILLER_49_27
*1421 FILLER_49_273
*1422 FILLER_49_279
*1423 FILLER_49_281
*1424 FILLER_49_293
*1425 FILLER_49_3
*1426 FILLER_49_39
*1427 FILLER_49_51
*1428 FILLER_49_55
*1429 FILLER_49_57
*1430 FILLER_49_69
*1431 FILLER_49_81
*1432 FILLER_49_93
*1433 FILLER_4_109
*1434 FILLER_4_121
*1435 FILLER_4_133
*1436 FILLER_4_139
*1437 FILLER_4_141
*1438 FILLER_4_15
*1439 FILLER_4_153
*1440 FILLER_4_165
*1441 FILLER_4_177
*1442 FILLER_4_189
*1443 FILLER_4_195
*1444 FILLER_4_197
*1445 FILLER_4_209
*1446 FILLER_4_221
*1447 FILLER_4_233
*1448 FILLER_4_245
*1449 FILLER_4_251
*1450 FILLER_4_253
*1451 FILLER_4_265
*1452 FILLER_4_27
*1453 FILLER_4_277
*1454 FILLER_4_289
*1455 FILLER_4_29
*1456 FILLER_4_297
*1457 FILLER_4_3
*1458 FILLER_4_41
*1459 FILLER_4_53
*1460 FILLER_4_65
*1461 FILLER_4_77
*1462 FILLER_4_83
*1463 FILLER_4_85
*1464 FILLER_4_97
*1465 FILLER_50_109
*1466 FILLER_50_121
*1467 FILLER_50_133
*1468 FILLER_50_139
*1469 FILLER_50_141
*1470 FILLER_50_153
*1471 FILLER_50_165
*1472 FILLER_50_177
*1473 FILLER_50_189
*1474 FILLER_50_195
*1475 FILLER_50_197
*1476 FILLER_50_20
*1477 FILLER_50_209
*1478 FILLER_50_221
*1479 FILLER_50_233
*1480 FILLER_50_245
*1481 FILLER_50_251
*1482 FILLER_50_253
*1483 FILLER_50_265
*1484 FILLER_50_277
*1485 FILLER_50_289
*1486 FILLER_50_29
*1487 FILLER_50_297
*1488 FILLER_50_3
*1489 FILLER_50_41
*1490 FILLER_50_53
*1491 FILLER_50_65
*1492 FILLER_50_77
*1493 FILLER_50_8
*1494 FILLER_50_83
*1495 FILLER_50_85
*1496 FILLER_50_97
*1497 FILLER_51_105
*1498 FILLER_51_111
*1499 FILLER_51_113
*1500 FILLER_51_125
*1501 FILLER_51_137
*1502 FILLER_51_149
*1503 FILLER_51_15
*1504 FILLER_51_161
*1505 FILLER_51_167
*1506 FILLER_51_169
*1507 FILLER_51_181
*1508 FILLER_51_193
*1509 FILLER_51_205
*1510 FILLER_51_217
*1511 FILLER_51_223
*1512 FILLER_51_225
*1513 FILLER_51_237
*1514 FILLER_51_249
*1515 FILLER_51_261
*1516 FILLER_51_27
*1517 FILLER_51_273
*1518 FILLER_51_279
*1519 FILLER_51_281
*1520 FILLER_51_293
*1521 FILLER_51_3
*1522 FILLER_51_39
*1523 FILLER_51_51
*1524 FILLER_51_55
*1525 FILLER_51_57
*1526 FILLER_51_69
*1527 FILLER_51_81
*1528 FILLER_51_93
*1529 FILLER_52_109
*1530 FILLER_52_121
*1531 FILLER_52_133
*1532 FILLER_52_139
*1533 FILLER_52_141
*1534 FILLER_52_15
*1535 FILLER_52_153
*1536 FILLER_52_165
*1537 FILLER_52_177
*1538 FILLER_52_189
*1539 FILLER_52_195
*1540 FILLER_52_197
*1541 FILLER_52_209
*1542 FILLER_52_221
*1543 FILLER_52_233
*1544 FILLER_52_245
*1545 FILLER_52_251
*1546 FILLER_52_253
*1547 FILLER_52_265
*1548 FILLER_52_27
*1549 FILLER_52_277
*1550 FILLER_52_289
*1551 FILLER_52_29
*1552 FILLER_52_297
*1553 FILLER_52_3
*1554 FILLER_52_41
*1555 FILLER_52_53
*1556 FILLER_52_65
*1557 FILLER_52_77
*1558 FILLER_52_83
*1559 FILLER_52_85
*1560 FILLER_52_97
*1561 FILLER_53_105
*1562 FILLER_53_111
*1563 FILLER_53_113
*1564 FILLER_53_125
*1565 FILLER_53_137
*1566 FILLER_53_149
*1567 FILLER_53_15
*1568 FILLER_53_161
*1569 FILLER_53_167
*1570 FILLER_53_169
*1571 FILLER_53_181
*1572 FILLER_53_193
*1573 FILLER_53_205
*1574 FILLER_53_217
*1575 FILLER_53_223
*1576 FILLER_53_225
*1577 FILLER_53_237
*1578 FILLER_53_249
*1579 FILLER_53_261
*1580 FILLER_53_27
*1581 FILLER_53_273
*1582 FILLER_53_279
*1583 FILLER_53_281
*1584 FILLER_53_293