*SPEF "ieee 1481-1999"
*DESIGN "user_module_362867354023533569"
*DATE "11:11:11 Fri 11 11, 1111"
*VENDOR "OpenRCX"
*PROGRAM "Parallel Extraction"
*VERSION "1.0"
*DESIGN_FLOW "NAME_SCOPE LOCAL" "PIN_CAP NONE"
*DIVIDER /
*DELIMITER :
*BUS_DELIMITER []
*T_UNIT 1 NS
*C_UNIT 1 PF
*R_UNIT 1 OHM
*L_UNIT 1 HENRY

*NAME_MAP
*1 io_in[0]
*2 io_in[1]
*3 io_in[2]
*4 io_in[3]
*5 io_in[4]
*6 io_in[5]
*7 io_in[6]
*8 io_in[7]
*9 io_out[0]
*10 io_out[1]
*11 io_out[2]
*12 io_out[3]
*13 io_out[4]
*14 io_out[5]
*15 io_out[6]
*16 io_out[7]
*19 _000_
*20 _001_
*21 _002_
*22 _003_
*23 _004_
*24 _005_
*25 _006_
*26 _007_
*27 _008_
*28 _009_
*29 _010_
*30 _011_
*31 _012_
*32 _013_
*33 _014_
*34 _015_
*35 _016_
*36 _017_
*37 _018_
*38 _019_
*39 _020_
*40 _021_
*41 _022_
*42 _023_
*43 _024_
*44 _025_
*45 _026_
*46 _027_
*47 _028_
*48 _029_
*49 _030_
*50 _031_
*51 _032_
*52 _033_
*53 _034_
*54 _035_
*55 _036_
*56 _037_
*57 _038_
*58 _039_
*59 _040_
*60 _041_
*61 _042_
*62 _043_
*63 _044_
*64 _045_
*65 _046_
*66 _047_
*67 _048_
*68 _049_
*69 _050_
*70 _051_
*71 _052_
*72 _053_
*73 _054_
*74 _055_
*75 _056_
*76 _057_
*77 _058_
*78 _059_
*79 _060_
*80 _061_
*81 _062_
*82 _063_
*83 _064_
*84 _065_
*85 _066_
*86 _067_
*87 _068_
*88 _069_
*89 _070_
*90 _071_
*91 _072_
*92 _073_
*93 _074_
*94 _075_
*95 _076_
*96 _077_
*97 _078_
*98 _079_
*99 _080_
*100 _081_
*101 _082_
*102 _083_
*103 _084_
*104 _085_
*105 _086_
*106 _087_
*107 _088_
*108 _089_
*109 _090_
*110 _091_
*111 _092_
*112 _093_
*113 _094_
*114 _095_
*115 _096_
*116 _097_
*117 _098_
*118 _099_
*119 _100_
*120 _101_
*121 _102_
*122 _103_
*123 _104_
*124 _105_
*125 _106_
*126 _107_
*127 _108_
*128 _109_
*129 _110_
*130 _111_
*131 _112_
*132 _113_
*133 _114_
*134 _115_
*135 _116_
*136 _117_
*137 _118_
*138 _119_
*139 _120_
*140 _121_
*141 _122_
*142 _123_
*143 _124_
*144 _125_
*145 _126_
*146 _127_
*147 _128_
*148 _129_
*149 _130_
*150 _131_
*151 _132_
*152 _133_
*153 _134_
*154 _135_
*155 _136_
*156 _137_
*157 _138_
*158 _139_
*159 _140_
*160 _141_
*161 _142_
*162 _143_
*163 _144_
*164 _145_
*165 _146_
*166 _147_
*167 _148_
*168 _149_
*169 _150_
*170 _151_
*171 _152_
*172 _153_
*173 _154_
*174 _155_
*175 _156_
*176 _157_
*177 _158_
*178 _159_
*179 _160_
*180 and1\.b
*181 and1\.out
*182 and10\.a
*183 and10\.b
*184 and10\.out
*185 and13\.out
*186 and14\.a
*187 and14\.b
*188 and14\.out
*189 and15\.b
*190 and15\.out
*191 and16\.b
*192 and16\.out
*193 and17\.b
*194 and17\.out
*195 and18\.b
*196 and18\.out
*197 and19\.b
*198 and19\.out
*199 and2\.b
*200 and2\.out
*201 and20\.b
*202 and20\.out
*203 and21\.b
*204 and21\.out
*205 and25\.b
*206 and26\.a
*207 and26\.b
*208 and26\.out
*209 and27\.b
*210 and27\.out
*211 and28\.b
*212 and28\.out
*213 and29\.b
*214 and29\.out
*215 and3\.b
*216 and3\.out
*217 and30\.b
*218 and30\.out
*219 and31\.b
*220 and31\.out
*221 and32\.b
*222 and32\.out
*223 and33\.b
*224 and33\.out
*225 and37\.a
*226 and37\.b
*227 and38\.a
*228 and38\.b
*229 and38\.out
*230 and39\.b
*231 and39\.out
*232 and4\.b
*233 and4\.out
*234 and40\.b
*235 and40\.out
*236 and41\.b
*237 and41\.out
*238 and42\.b
*239 and42\.out
*240 and43\.b
*241 and43\.out
*242 and44\.b
*243 and44\.out
*244 and45\.b
*245 and45\.out
*246 and49\.a
*247 and49\.b
*248 and5\.b
*249 and5\.out
*250 and55\.b
*251 and55\.out
*252 and6\.b
*253 and6\.out
*254 and7\.b
*255 and7\.out
*256 and8\.b
*257 and8\.out
*258 and9\.b
*259 flop1\.d
*260 flop1\.q
*261 flop10\.clk
*262 flop10\.d
*263 flop10\.q
*264 flop11\.d
*265 flop11\.q
*266 flop12\.d
*267 flop12\.q
*268 flop13\.d
*269 flop13\.q
*270 flop14\.d
*271 flop14\.q
*272 flop18\.clk
*273 flop18\.d
*274 flop2\.clk
*275 flop2\.d
*276 flop2\.q
*277 flop3\.clk
*278 flop3\.d
*279 flop4\.d
*280 flop5\.d
*281 flop5\.q
*282 flop6\.d
*283 flop7\.d
*284 flop7\.q
*285 flop8\.d
*286 flop8\.q
*287 flop9\.d
*288 net1
*289 net10
*290 net11
*291 net12
*292 net13
*293 net14
*294 net15
*295 net16
*296 net2
*297 net3
*298 net4
*299 net5
*300 net6
*301 net7
*302 net8
*303 net9
*304 FILLER_0_109
*305 FILLER_0_113
*306 FILLER_0_125
*307 FILLER_0_137
*308 FILLER_0_141
*309 FILLER_0_153
*310 FILLER_0_165
*311 FILLER_0_169
*312 FILLER_0_181
*313 FILLER_0_193
*314 FILLER_0_197
*315 FILLER_0_209
*316 FILLER_0_221
*317 FILLER_0_225
*318 FILLER_0_237
*319 FILLER_0_249
*320 FILLER_0_25
*321 FILLER_0_253
*322 FILLER_0_265
*323 FILLER_0_277
*324 FILLER_0_281
*325 FILLER_0_29
*326 FILLER_0_293
*327 FILLER_0_3
*328 FILLER_0_35
*329 FILLER_0_42
*330 FILLER_0_49
*331 FILLER_0_55
*332 FILLER_0_57
*333 FILLER_0_69
*334 FILLER_0_81
*335 FILLER_0_85
*336 FILLER_0_97
*337 FILLER_10_109
*338 FILLER_10_12
*339 FILLER_10_121
*340 FILLER_10_133
*341 FILLER_10_139
*342 FILLER_10_141
*343 FILLER_10_153
*344 FILLER_10_16
*345 FILLER_10_165
*346 FILLER_10_177
*347 FILLER_10_189
*348 FILLER_10_195
*349 FILLER_10_197
*350 FILLER_10_209
*351 FILLER_10_221
*352 FILLER_10_233
*353 FILLER_10_245
*354 FILLER_10_251
*355 FILLER_10_253
*356 FILLER_10_26
*357 FILLER_10_265
*358 FILLER_10_277
*359 FILLER_10_289
*360 FILLER_10_29
*361 FILLER_10_297
*362 FILLER_10_3
*363 FILLER_10_37
*364 FILLER_10_45
*365 FILLER_10_50
*366 FILLER_10_8
*367 FILLER_10_82
*368 FILLER_10_85
*369 FILLER_10_97
*370 FILLER_11_100
*371 FILLER_11_113
*372 FILLER_11_125
*373 FILLER_11_137
*374 FILLER_11_149
*375 FILLER_11_15
*376 FILLER_11_161
*377 FILLER_11_167
*378 FILLER_11_169
*379 FILLER_11_181
*380 FILLER_11_193
*381 FILLER_11_205
*382 FILLER_11_217
*383 FILLER_11_22
*384 FILLER_11_223
*385 FILLER_11_225
*386 FILLER_11_237
*387 FILLER_11_249
*388 FILLER_11_261
*389 FILLER_11_273
*390 FILLER_11_279
*391 FILLER_11_281
*392 FILLER_11_29
*393 FILLER_11_293
*394 FILLER_11_3
*395 FILLER_11_37
*396 FILLER_11_45
*397 FILLER_11_52
*398 FILLER_11_57
*399 FILLER_11_63
*400 FILLER_11_71
*401 FILLER_11_9
*402 FILLER_12_11
*403 FILLER_12_115
*404 FILLER_12_127
*405 FILLER_12_139
*406 FILLER_12_141
*407 FILLER_12_164
*408 FILLER_12_176
*409 FILLER_12_18
*410 FILLER_12_188
*411 FILLER_12_197
*412 FILLER_12_209
*413 FILLER_12_22
*414 FILLER_12_221
*415 FILLER_12_233
*416 FILLER_12_245
*417 FILLER_12_251
*418 FILLER_12_253
*419 FILLER_12_26
*420 FILLER_12_265
*421 FILLER_12_277
*422 FILLER_12_289
*423 FILLER_12_29
*424 FILLER_12_297
*425 FILLER_12_3
*426 FILLER_12_34
*427 FILLER_12_46
*428 FILLER_12_58
*429 FILLER_12_62
*430 FILLER_12_69
*431 FILLER_12_81
*432 FILLER_12_85
*433 FILLER_13_10
*434 FILLER_13_108
*435 FILLER_13_113
*436 FILLER_13_143
*437 FILLER_13_155
*438 FILLER_13_167
*439 FILLER_13_169
*440 FILLER_13_18
*441 FILLER_13_181
*442 FILLER_13_193
*443 FILLER_13_205
*444 FILLER_13_217
*445 FILLER_13_223
*446 FILLER_13_225
*447 FILLER_13_237
*448 FILLER_13_249
*449 FILLER_13_261
*450 FILLER_13_27
*451 FILLER_13_273
*452 FILLER_13_279
*453 FILLER_13_281
*454 FILLER_13_293
*455 FILLER_13_3
*456 FILLER_13_36
*457 FILLER_13_45
*458 FILLER_13_54
*459 FILLER_13_57
*460 FILLER_13_64
*461 FILLER_13_68
*462 FILLER_13_72
*463 FILLER_13_84
*464 FILLER_13_96
*465 FILLER_14_10
*466 FILLER_14_118
*467 FILLER_14_130
*468 FILLER_14_138
*469 FILLER_14_141
*470 FILLER_14_153
*471 FILLER_14_165
*472 FILLER_14_177
*473 FILLER_14_18
*474 FILLER_14_189
*475 FILLER_14_195
*476 FILLER_14_197
*477 FILLER_14_209
*478 FILLER_14_221
*479 FILLER_14_233
*480 FILLER_14_245
*481 FILLER_14_25
*482 FILLER_14_251
*483 FILLER_14_253
*484 FILLER_14_265
*485 FILLER_14_277
*486 FILLER_14_289
*487 FILLER_14_29
*488 FILLER_14_297
*489 FILLER_14_3
*490 FILLER_14_41
*491 FILLER_14_53
*492 FILLER_14_64
*493 FILLER_14_75
*494 FILLER_14_83
*495 FILLER_14_85
*496 FILLER_14_89
*497 FILLER_15_105
*498 FILLER_15_11
*499 FILLER_15_111
*500 FILLER_15_113
*501 FILLER_15_125
*502 FILLER_15_137
*503 FILLER_15_149
*504 FILLER_15_161
*505 FILLER_15_167
*506 FILLER_15_169
*507 FILLER_15_181
*508 FILLER_15_193
*509 FILLER_15_205
*510 FILLER_15_217
*511 FILLER_15_223
*512 FILLER_15_225
*513 FILLER_15_23
*514 FILLER_15_237
*515 FILLER_15_249
*516 FILLER_15_261
*517 FILLER_15_273
*518 FILLER_15_279
*519 FILLER_15_281
*520 FILLER_15_293
*521 FILLER_15_3
*522 FILLER_15_31
*523 FILLER_15_36
*524 FILLER_15_48
*525 FILLER_15_57
*526 FILLER_15_62
*527 FILLER_15_66
*528 FILLER_15_74
*529 FILLER_15_81
*530 FILLER_15_93
*531 FILLER_16_109
*532 FILLER_16_121
*533 FILLER_16_133
*534 FILLER_16_139
*535 FILLER_16_141
*536 FILLER_16_153
*537 FILLER_16_165
*538 FILLER_16_177
*539 FILLER_16_189
*540 FILLER_16_19
*541 FILLER_16_195
*542 FILLER_16_197
*543 FILLER_16_209
*544 FILLER_16_221
*545 FILLER_16_233
*546 FILLER_16_245
*547 FILLER_16_251
*548 FILLER_16_253
*549 FILLER_16_26
*550 FILLER_16_265
*551 FILLER_16_277
*552 FILLER_16_289
*553 FILLER_16_29
*554 FILLER_16_297
*555 FILLER_16_3
*556 FILLER_16_34
*557 FILLER_16_46
*558 FILLER_16_76
*559 FILLER_16_8
*560 FILLER_16_85
*561 FILLER_16_97
*562 FILLER_17_105
*563 FILLER_17_111
*564 FILLER_17_113
*565 FILLER_17_125
*566 FILLER_17_137
*567 FILLER_17_149
*568 FILLER_17_161
*569 FILLER_17_167
*570 FILLER_17_169
*571 FILLER_17_181
*572 FILLER_17_193
*573 FILLER_17_205
*574 FILLER_17_217
*575 FILLER_17_223
*576 FILLER_17_225
*577 FILLER_17_237
*578 FILLER_17_249
*579 FILLER_17_261
*580 FILLER_17_273
*581 FILLER_17_279
*582 FILLER_17_281
*583 FILLER_17_293
*584 FILLER_17_3
*585 FILLER_17_36
*586 FILLER_17_46
*587 FILLER_17_54
*588 FILLER_17_57
*589 FILLER_17_69
*590 FILLER_17_7
*591 FILLER_17_81
*592 FILLER_17_93
*593 FILLER_18_109
*594 FILLER_18_121
*595 FILLER_18_133
*596 FILLER_18_139
*597 FILLER_18_141
*598 FILLER_18_153
*599 FILLER_18_165
*600 FILLER_18_177
*601 FILLER_18_18
*602 FILLER_18_189
*603 FILLER_18_195
*604 FILLER_18_197
*605 FILLER_18_209
*606 FILLER_18_221
*607 FILLER_18_233
*608 FILLER_18_245
*609 FILLER_18_251
*610 FILLER_18_253
*611 FILLER_18_26
*612 FILLER_18_265
*613 FILLER_18_277
*614 FILLER_18_289
*615 FILLER_18_29
*616 FILLER_18_297
*617 FILLER_18_3
*618 FILLER_18_59
*619 FILLER_18_66
*620 FILLER_18_78
*621 FILLER_18_8
*622 FILLER_18_85
*623 FILLER_18_97
*624 FILLER_19_109
*625 FILLER_19_113
*626 FILLER_19_14
*627 FILLER_19_143
*628 FILLER_19_155
*629 FILLER_19_167
*630 FILLER_19_169
*631 FILLER_19_181
*632 FILLER_19_193
*633 FILLER_19_205
*634 FILLER_19_217
*635 FILLER_19_223
*636 FILLER_19_225
*637 FILLER_19_237
*638 FILLER_19_249
*639 FILLER_19_26
*640 FILLER_19_261
*641 FILLER_19_273
*642 FILLER_19_279
*643 FILLER_19_281
*644 FILLER_19_293
*645 FILLER_19_3
*646 FILLER_19_36
*647 FILLER_19_47
*648 FILLER_19_54
*649 FILLER_19_57
*650 FILLER_19_64
*651 FILLER_19_76
*652 FILLER_19_80
*653 FILLER_1_105
*654 FILLER_1_111
*655 FILLER_1_113
*656 FILLER_1_125
*657 FILLER_1_137
*658 FILLER_1_149
*659 FILLER_1_161
*660 FILLER_1_167
*661 FILLER_1_169
*662 FILLER_1_181
*663 FILLER_1_193
*664 FILLER_1_205
*665 FILLER_1_217
*666 FILLER_1_223
*667 FILLER_1_225
*668 FILLER_1_237
*669 FILLER_1_249
*670 FILLER_1_25
*671 FILLER_1_261
*672 FILLER_1_273
*673 FILLER_1_279
*674 FILLER_1_281
*675 FILLER_1_293
*676 FILLER_1_3
*677 FILLER_1_49
*678 FILLER_1_55
*679 FILLER_1_57
*680 FILLER_1_69
*681 FILLER_1_81
*682 FILLER_1_93
*683 FILLER_20_12
*684 FILLER_20_122
*685 FILLER_20_134
*686 FILLER_20_141
*687 FILLER_20_153
*688 FILLER_20_165
*689 FILLER_20_177
*690 FILLER_20_189
*691 FILLER_20_19
*692 FILLER_20_195
*693 FILLER_20_197
*694 FILLER_20_209
*695 FILLER_20_221
*696 FILLER_20_233
*697 FILLER_20_245
*698 FILLER_20_251
*699 FILLER_20_253
*700 FILLER_20_26
*701 FILLER_20_265
*702 FILLER_20_277
*703 FILLER_20_289
*704 FILLER_20_29
*705 FILLER_20_297
*706 FILLER_20_3
*707 FILLER_20_38
*708 FILLER_20_44
*709 FILLER_20_51
*710 FILLER_20_62
*711 FILLER_20_69
*712 FILLER_20_81
*713 FILLER_20_85
*714 FILLER_20_93
*715 FILLER_21_10
*716 FILLER_21_103
*717 FILLER_21_111
*718 FILLER_21_113
*719 FILLER_21_125
*720 FILLER_21_137
*721 FILLER_21_149
*722 FILLER_21_161
*723 FILLER_21_167
*724 FILLER_21_169
*725 FILLER_21_181
*726 FILLER_21_19
*727 FILLER_21_193
*728 FILLER_21_205
*729 FILLER_21_217
*730 FILLER_21_223
*731 FILLER_21_225
*732 FILLER_21_237
*733 FILLER_21_249
*734 FILLER_21_261
*735 FILLER_21_27
*736 FILLER_21_273
*737 FILLER_21_279
*738 FILLER_21_281
*739 FILLER_21_293
*740 FILLER_21_3
*741 FILLER_21_39
*742 FILLER_21_49
*743 FILLER_21_55
*744 FILLER_21_57
*745 FILLER_21_62
*746 FILLER_21_70
*747 FILLER_21_79
*748 FILLER_21_91
*749 FILLER_22_102
*750 FILLER_22_114
*751 FILLER_22_126
*752 FILLER_22_138
*753 FILLER_22_14
*754 FILLER_22_141
*755 FILLER_22_153
*756 FILLER_22_165
*757 FILLER_22_177
*758 FILLER_22_18
*759 FILLER_22_189
*760 FILLER_22_195
*761 FILLER_22_197
*762 FILLER_22_209
*763 FILLER_22_221
*764 FILLER_22_233
*765 FILLER_22_245
*766 FILLER_22_251
*767 FILLER_22_253
*768 FILLER_22_26
*769 FILLER_22_265
*770 FILLER_22_277
*771 FILLER_22_289
*772 FILLER_22_29
*773 FILLER_22_297
*774 FILLER_22_3
*775 FILLER_22_36
*776 FILLER_22_48
*777 FILLER_22_52
*778 FILLER_22_56
*779 FILLER_22_63
*780 FILLER_22_70
*781 FILLER_22_8
*782 FILLER_22_82
*783 FILLER_22_85
*784 FILLER_22_90
*785 FILLER_23_100
*786 FILLER_23_113
*787 FILLER_23_125
*788 FILLER_23_133
*789 FILLER_23_164
*790 FILLER_23_169
*791 FILLER_23_181
*792 FILLER_23_193
*793 FILLER_23_20
*794 FILLER_23_205
*795 FILLER_23_217
*796 FILLER_23_223
*797 FILLER_23_225
*798 FILLER_23_237
*799 FILLER_23_249
*800 FILLER_23_25
*801 FILLER_23_261
*802 FILLER_23_273
*803 FILLER_23_279
*804 FILLER_23_281
*805 FILLER_23_293
*806 FILLER_23_3
*807 FILLER_23_33
*808 FILLER_23_40
*809 FILLER_23_50
*810 FILLER_23_57
*811 FILLER_23_69
*812 FILLER_23_8
*813 FILLER_23_81
*814 FILLER_23_88
*815 FILLER_24_134
*816 FILLER_24_141
*817 FILLER_24_15
*818 FILLER_24_153
*819 FILLER_24_165
*820 FILLER_24_177
*821 FILLER_24_189
*822 FILLER_24_195
*823 FILLER_24_197
*824 FILLER_24_209
*825 FILLER_24_221
*826 FILLER_24_233
*827 FILLER_24_245
*828 FILLER_24_251
*829 FILLER_24_253
*830 FILLER_24_26
*831 FILLER_24_265
*832 FILLER_24_277
*833 FILLER_24_289
*834 FILLER_24_29
*835 FILLER_24_297
*836 FILLER_24_3
*837 FILLER_24_34
*838 FILLER_24_41
*839 FILLER_24_53
*840 FILLER_24_65
*841 FILLER_24_72
*842 FILLER_24_81
*843 FILLER_24_85
*844 FILLER_24_9
*845 FILLER_24_94
*846 FILLER_25_104
*847 FILLER_25_113
*848 FILLER_25_15
*849 FILLER_25_153
*850 FILLER_25_165
*851 FILLER_25_169
*852 FILLER_25_181
*853 FILLER_25_193
*854 FILLER_25_205
*855 FILLER_25_217
*856 FILLER_25_223
*857 FILLER_25_225
*858 FILLER_25_23
*859 FILLER_25_237
*860 FILLER_25_249
*861 FILLER_25_261
*862 FILLER_25_273
*863 FILLER_25_279
*864 FILLER_25_281
*865 FILLER_25_29
*866 FILLER_25_293
*867 FILLER_25_3
*868 FILLER_25_41
*869 FILLER_25_49
*870 FILLER_25_54
*871 FILLER_25_57
*872 FILLER_25_63
*873 FILLER_25_67
*874 FILLER_25_79
*875 FILLER_25_83
*876 FILLER_25_92
*877 FILLER_26_109
*878 FILLER_26_121
*879 FILLER_26_133
*880 FILLER_26_139
*881 FILLER_26_141
*882 FILLER_26_15
*883 FILLER_26_153
*884 FILLER_26_165
*885 FILLER_26_177
*886 FILLER_26_189
*887 FILLER_26_195
*888 FILLER_26_197
*889 FILLER_26_209
*890 FILLER_26_221
*891 FILLER_26_23
*892 FILLER_26_233
*893 FILLER_26_245
*894 FILLER_26_251
*895 FILLER_26_253
*896 FILLER_26_265
*897 FILLER_26_27
*898 FILLER_26_277
*899 FILLER_26_289
*900 FILLER_26_29
*901 FILLER_26_297
*902 FILLER_26_3
*903 FILLER_26_59
*904 FILLER_26_72
*905 FILLER_26_85
*906 FILLER_26_97
*907 FILLER_27_106
*908 FILLER_27_113
*909 FILLER_27_125
*910 FILLER_27_15
*911 FILLER_27_155
*912 FILLER_27_167
*913 FILLER_27_169
*914 FILLER_27_181
*915 FILLER_27_193
*916 FILLER_27_205
*917 FILLER_27_217
*918 FILLER_27_223
*919 FILLER_27_225
*920 FILLER_27_237
*921 FILLER_27_249
*922 FILLER_27_25
*923 FILLER_27_261
*924 FILLER_27_273
*925 FILLER_27_279
*926 FILLER_27_281
*927 FILLER_27_293
*928 FILLER_27_3
*929 FILLER_27_36
*930 FILLER_27_43
*931 FILLER_27_55
*932 FILLER_27_57
*933 FILLER_27_69
*934 FILLER_27_75
*935 FILLER_27_82
*936 FILLER_27_94
*937 FILLER_28_124
*938 FILLER_28_136
*939 FILLER_28_141
*940 FILLER_28_15
*941 FILLER_28_153
*942 FILLER_28_165
*943 FILLER_28_177
*944 FILLER_28_189
*945 FILLER_28_195
*946 FILLER_28_197
*947 FILLER_28_209
*948 FILLER_28_21
*949 FILLER_28_221
*950 FILLER_28_233
*951 FILLER_28_245
*952 FILLER_28_251
*953 FILLER_28_253
*954 FILLER_28_26
*955 FILLER_28_265
*956 FILLER_28_277
*957 FILLER_28_289
*958 FILLER_28_29
*959 FILLER_28_297
*960 FILLER_28_3
*961 FILLER_28_34
*962 FILLER_28_46
*963 FILLER_28_60
*964 FILLER_28_79
*965 FILLER_28_83
*966 FILLER_28_85
*967 FILLER_28_90
*968 FILLER_29_101
*969 FILLER_29_109
*970 FILLER_29_11
*971 FILLER_29_113
*972 FILLER_29_143
*973 FILLER_29_15
*974 FILLER_29_155
*975 FILLER_29_167
*976 FILLER_29_169
*977 FILLER_29_181
*978 FILLER_29_19
*979 FILLER_29_193
*980 FILLER_29_205
*981 FILLER_29_217
*982 FILLER_29_223
*983 FILLER_29_225
*984 FILLER_29_237
*985 FILLER_29_249
*986 FILLER_29_261
*987 FILLER_29_273
*988 FILLER_29_279
*989 FILLER_29_281
*990 FILLER_29_29
*991 FILLER_29_293
*992 FILLER_29_3
*993 FILLER_29_36
*994 FILLER_29_48
*995 FILLER_29_57
*996 FILLER_29_61
*997 FILLER_29_65
*998 FILLER_29_77
*999 FILLER_29_89
*1000 FILLER_2_109
*1001 FILLER_2_121
*1002 FILLER_2_133
*1003 FILLER_2_139
*1004 FILLER_2_141
*1005 FILLER_2_153
*1006 FILLER_2_165
*1007 FILLER_2_177
*1008 FILLER_2_189
*1009 FILLER_2_195
*1010 FILLER_2_197
*1011 FILLER_2_209
*1012 FILLER_2_221
*1013 FILLER_2_233
*1014 FILLER_2_245
*1015 FILLER_2_251
*1016 FILLER_2_253
*1017 FILLER_2_26
*1018 FILLER_2_265
*1019 FILLER_2_277
*1020 FILLER_2_289
*1021 FILLER_2_29
*1022 FILLER_2_297
*1023 FILLER_2_3
*1024 FILLER_2_51
*1025 FILLER_2_58
*1026 FILLER_2_70
*1027 FILLER_2_82
*1028 FILLER_2_85
*1029 FILLER_2_97
*1030 FILLER_30_109
*1031 FILLER_30_121
*1032 FILLER_30_133
*1033 FILLER_30_139
*1034 FILLER_30_14
*1035 FILLER_30_141
*1036 FILLER_30_153
*1037 FILLER_30_165
*1038 FILLER_30_177
*1039 FILLER_30_189
*1040 FILLER_30_195
*1041 FILLER_30_197
*1042 FILLER_30_209
*1043 FILLER_30_221
*1044 FILLER_30_233
*1045 FILLER_30_24
*1046 FILLER_30_245
*1047 FILLER_30_251
*1048 FILLER_30_253
*1049 FILLER_30_265
*1050 FILLER_30_277
*1051 FILLER_30_289
*1052 FILLER_30_29
*1053 FILLER_30_297
*1054 FILLER_30_3
*1055 FILLER_30_40
*1056 FILLER_30_48
*1057 FILLER_30_52
*1058 FILLER_30_62
*1059 FILLER_30_74
*1060 FILLER_30_82
*1061 FILLER_30_85
*1062 FILLER_30_97
*1063 FILLER_31_111
*1064 FILLER_31_113
*1065 FILLER_31_12
*1066 FILLER_31_125
*1067 FILLER_31_137
*1068 FILLER_31_149
*1069 FILLER_31_16
*1070 FILLER_31_161
*1071 FILLER_31_167
*1072 FILLER_31_169
*1073 FILLER_31_181
*1074 FILLER_31_193
*1075 FILLER_31_205
*1076 FILLER_31_217
*1077 FILLER_31_22
*1078 FILLER_31_223
*1079 FILLER_31_225
*1080 FILLER_31_237
*1081 FILLER_31_249
*1082 FILLER_31_26
*1083 FILLER_31_261
*1084 FILLER_31_273
*1085 FILLER_31_279
*1086 FILLER_31_281
*1087 FILLER_31_293
*1088 FILLER_31_3
*1089 FILLER_31_30
*1090 FILLER_31_40
*1091 FILLER_31_50
*1092 FILLER_31_57
*1093 FILLER_31_87
*1094 FILLER_31_99
*1095 FILLER_32_102
*1096 FILLER_32_114
*1097 FILLER_32_126
*1098 FILLER_32_13
*1099 FILLER_32_138
*1100 FILLER_32_141
*1101 FILLER_32_153
*1102 FILLER_32_165
*1103 FILLER_32_177
*1104 FILLER_32_189
*1105 FILLER_32_19
*1106 FILLER_32_195
*1107 FILLER_32_197
*1108 FILLER_32_209
*1109 FILLER_32_221
*1110 FILLER_32_233
*1111 FILLER_32_245
*1112 FILLER_32_251
*1113 FILLER_32_253
*1114 FILLER_32_26
*1115 FILLER_32_265
*1116 FILLER_32_277
*1117 FILLER_32_289
*1118 FILLER_32_29
*1119 FILLER_32_297
*1120 FILLER_32_3
*1121 FILLER_32_35
*1122 FILLER_32_64
*1123 FILLER_32_7
*1124 FILLER_32_73
*1125 FILLER_32_82
*1126 FILLER_32_85
*1127 FILLER_32_90
*1128 FILLER_33_110
*1129 FILLER_33_113
*1130 FILLER_33_14
*1131 FILLER_33_145
*1132 FILLER_33_157
*1133 FILLER_33_165
*1134 FILLER_33_169
*1135 FILLER_33_181
*1136 FILLER_33_193
*1137 FILLER_33_205
*1138 FILLER_33_21
*1139 FILLER_33_217
*1140 FILLER_33_223
*1141 FILLER_33_225
*1142 FILLER_33_237
*1143 FILLER_33_249
*1144 FILLER_33_261
*1145 FILLER_33_273
*1146 FILLER_33_279
*1147 FILLER_33_281
*1148 FILLER_33_293
*1149 FILLER_33_3
*1150 FILLER_33_32
*1151 FILLER_33_39
*1152 FILLER_33_47
*1153 FILLER_33_51
*1154 FILLER_33_55
*1155 FILLER_33_57
*1156 FILLER_33_75
*1157 FILLER_33_86
*1158 FILLER_33_98
*1159 FILLER_34_11
*1160 FILLER_34_124
*1161 FILLER_34_136
*1162 FILLER_34_141
*1163 FILLER_34_15
*1164 FILLER_34_153
*1165 FILLER_34_165
*1166 FILLER_34_177
*1167 FILLER_34_189
*1168 FILLER_34_195
*1169 FILLER_34_197
*1170 FILLER_34_209
*1171 FILLER_34_221
*1172 FILLER_34_233
*1173 FILLER_34_245
*1174 FILLER_34_251
*1175 FILLER_34_253
*1176 FILLER_34_26
*1177 FILLER_34_265
*1178 FILLER_34_277
*1179 FILLER_34_289
*1180 FILLER_34_29
*1181 FILLER_34_297
*1182 FILLER_34_3
*1183 FILLER_34_40
*1184 FILLER_34_50
*1185 FILLER_34_58
*1186 FILLER_34_63
*1187 FILLER_34_70
*1188 FILLER_34_82
*1189 FILLER_34_85
*1190 FILLER_34_93
*1191 FILLER_35_110
*1192 FILLER_35_113
*1193 FILLER_35_125
*1194 FILLER_35_13
*1195 FILLER_35_137
*1196 FILLER_35_149
*1197 FILLER_35_161
*1198 FILLER_35_167
*1199 FILLER_35_169
*1200 FILLER_35_181
*1201 FILLER_35_193
*1202 FILLER_35_20
*1203 FILLER_35_205
*1204 FILLER_35_217
*1205 FILLER_35_223
*1206 FILLER_35_225
*1207 FILLER_35_237
*1208 FILLER_35_24
*1209 FILLER_35_249
*1210 FILLER_35_261
*1211 FILLER_35_273
*1212 FILLER_35_279
*1213 FILLER_35_28
*1214 FILLER_35_281
*1215 FILLER_35_293
*1216 FILLER_35_3
*1217 FILLER_35_32
*1218 FILLER_35_36
*1219 FILLER_35_48
*1220 FILLER_35_57
*1221 FILLER_35_62
*1222 FILLER_35_74
*1223 FILLER_35_82
*1224 FILLER_35_86
*1225 FILLER_35_98
*1226 FILLER_36_116
*1227 FILLER_36_128
*1228 FILLER_36_141
*1229 FILLER_36_153
*1230 FILLER_36_16
*1231 FILLER_36_165
*1232 FILLER_36_177
*1233 FILLER_36_189
*1234 FILLER_36_195
*1235 FILLER_36_197
*1236 FILLER_36_209
*1237 FILLER_36_221
*1238 FILLER_36_233
*1239 FILLER_36_245
*1240 FILLER_36_251
*1241 FILLER_36_253
*1242 FILLER_36_26
*1243 FILLER_36_265
*1244 FILLER_36_277
*1245 FILLER_36_289
*1246 FILLER_36_29
*1247 FILLER_36_297
*1248 FILLER_36_3
*1249 FILLER_36_37
*1250 FILLER_36_49
*1251 FILLER_36_61
*1252 FILLER_36_69
*1253 FILLER_36_75
*1254 FILLER_36_83
*1255 FILLER_36_85
*1256 FILLER_36_9
*1257 FILLER_37_100
*1258 FILLER_37_113
*1259 FILLER_37_125
*1260 FILLER_37_137
*1261 FILLER_37_149
*1262 FILLER_37_15
*1263 FILLER_37_161
*1264 FILLER_37_167
*1265 FILLER_37_169
*1266 FILLER_37_181
*1267 FILLER_37_193
*1268 FILLER_37_205
*1269 FILLER_37_217
*1270 FILLER_37_22
*1271 FILLER_37_223
*1272 FILLER_37_225
*1273 FILLER_37_237
*1274 FILLER_37_249
*1275 FILLER_37_261
*1276 FILLER_37_273
*1277 FILLER_37_279
*1278 FILLER_37_281
*1279 FILLER_37_29
*1280 FILLER_37_293
*1281 FILLER_37_3
*1282 FILLER_37_41
*1283 FILLER_37_47
*1284 FILLER_37_54
*1285 FILLER_37_57
*1286 FILLER_37_64
*1287 FILLER_37_76
*1288 FILLER_37_88
*1289 FILLER_37_9
*1290 FILLER_38_109
*1291 FILLER_38_121
*1292 FILLER_38_133
*1293 FILLER_38_139
*1294 FILLER_38_141
*1295 FILLER_38_15
*1296 FILLER_38_153
*1297 FILLER_38_165
*1298 FILLER_38_177
*1299 FILLER_38_189
*1300 FILLER_38_19
*1301 FILLER_38_195
*1302 FILLER_38_197
*1303 FILLER_38_209
*1304 FILLER_38_221
*1305 FILLER_38_233
*1306 FILLER_38_245
*1307 FILLER_38_251
*1308 FILLER_38_253
*1309 FILLER_38_26
*1310 FILLER_38_265
*1311 FILLER_38_277
*1312 FILLER_38_289
*1313 FILLER_38_29
*1314 FILLER_38_297
*1315 FILLER_38_3
*1316 FILLER_38_40
*1317 FILLER_38_48
*1318 FILLER_38_55
*1319 FILLER_38_66
*1320 FILLER_38_78
*1321 FILLER_38_85
*1322 FILLER_38_9
*1323 FILLER_38_97
*1324 FILLER_39_107
*1325 FILLER_39_111
*1326 FILLER_39_113
*1327 FILLER_39_143
*1328 FILLER_39_155
*1329 FILLER_39_167
*1330 FILLER_39_169
*1331 FILLER_39_18
*1332 FILLER_39_181
*1333 FILLER_39_193
*1334 FILLER_39_205
*1335 FILLER_39_217
*1336 FILLER_39_223
*1337 FILLER_39_225
*1338 FILLER_39_237
*1339 FILLER_39_249
*1340 FILLER_39_25
*1341 FILLER_39_261
*1342 FILLER_39_273
*1343 FILLER_39_279
*1344 FILLER_39_281
*1345 FILLER_39_29
*1346 FILLER_39_293
*1347 FILLER_39_3
*1348 FILLER_39_35
*1349 FILLER_39_39
*1350 FILLER_39_47
*1351 FILLER_39_54
*1352 FILLER_39_57
*1353 FILLER_39_62
*1354 FILLER_39_66
*1355 FILLER_39_95
*1356 FILLER_3_110
*1357 FILLER_3_113
*1358 FILLER_3_125
*1359 FILLER_3_137
*1360 FILLER_3_149
*1361 FILLER_3_16
*1362 FILLER_3_161
*1363 FILLER_3_167
*1364 FILLER_3_169
*1365 FILLER_3_181
*1366 FILLER_3_193
*1367 FILLER_3_205
*1368 FILLER_3_217
*1369 FILLER_3_223
*1370 FILLER_3_225
*1371 FILLER_3_237
*1372 FILLER_3_249
*1373 FILLER_3_261
*1374 FILLER_3_273
*1375 FILLER_3_279
*1376 FILLER_3_281
*1377 FILLER_3_293
*1378 FILLER_3_3
*1379 FILLER_3_40
*1380 FILLER_3_48
*1381 FILLER_3_57
*1382 FILLER_3_62
*1383 FILLER_3_74
*1384 FILLER_3_86
*1385 FILLER_3_9
*1386 FILLER_3_98
*1387 FILLER_40_109
*1388 FILLER_40_121
*1389 FILLER_40_133
*1390 FILLER_40_139
*1391 FILLER_40_14
*1392 FILLER_40_141
*1393 FILLER_40_153
*1394 FILLER_40_165
*1395 FILLER_40_177
*1396 FILLER_40_189
*1397 FILLER_40_195
*1398 FILLER_40_197
*1399 FILLER_40_209
*1400 FILLER_40_221
*1401 FILLER_40_233
*1402 FILLER_40_245
*1403 FILLER_40_251
*1404 FILLER_40_253
*1405 FILLER_40_26
*1406 FILLER_40_265
*1407 FILLER_40_277
*1408 FILLER_40_289
*1409 FILLER_40_29
*1410 FILLER_40_297
*1411 FILLER_40_3
*1412 FILLER_40_37
*1413 FILLER_40_46
*1414 FILLER_40_53
*1415 FILLER_40_62
*1416 FILLER_40_74
*1417 FILLER_40_82
*1418 FILLER_40_85
*1419 FILLER_40_97
*1420 FILLER_41_109
*1421 FILLER_41_113
*1422 FILLER_41_125
*1423 FILLER_41_137
*1424 FILLER_41_149
*1425 FILLER_41_16
*1426 FILLER_41_161
*1427 FILLER_41_167
*1428 FILLER_41_169
*1429 FILLER_41_181
*1430 FILLER_41_193
*1431 FILLER_41_205
*1432 FILLER_41_217
*1433 FILLER_41_223
*1434 FILLER_41_225
*1435 FILLER_41_237
*1436 FILLER_41_24
*1437 FILLER_41_249
*1438 FILLER_41_261
*1439 FILLER_41_273
*1440 FILLER_41_279
*1441 FILLER_41_28
*1442 FILLER_41_281
*1443 FILLER_41_293
*1444 FILLER_41_3
*1445 FILLER_41_34
*1446 FILLER_41_40
*1447 FILLER_41_46
*1448 FILLER_41_54
*1449 FILLER_41_57
*1450 FILLER_41_62
*1451 FILLER_41_68
*1452 FILLER_41_9
*1453 FILLER_41_97
*1454 FILLER_42_109
*1455 FILLER_42_121
*1456 FILLER_42_133
*1457 FILLER_42_139
*1458 FILLER_42_141
*1459 FILLER_42_153
*1460 FILLER_42_165
*1461 FILLER_42_177
*1462 FILLER_42_18
*1463 FILLER_42_189
*1464 FILLER_42_195
*1465 FILLER_42_197
*1466 FILLER_42_209
*1467 FILLER_42_221
*1468 FILLER_42_233
*1469 FILLER_42_245
*1470 FILLER_42_251
*1471 FILLER_42_253
*1472 FILLER_42_26
*1473 FILLER_42_265
*1474 FILLER_42_277
*1475 FILLER_42_289
*1476 FILLER_42_29
*1477 FILLER_42_297
*1478 FILLER_42_3
*1479 FILLER_42_40
*1480 FILLER_42_60
*1481 FILLER_42_72
*1482 FILLER_42_85
*1483 FILLER_42_9
*1484 FILLER_42_97
*1485 FILLER_43_105
*1486 FILLER_43_111
*1487 FILLER_43_113
*1488 FILLER_43_125
*1489 FILLER_43_137
*1490 FILLER_43_149
*1491 FILLER_43_161
*1492 FILLER_43_167
*1493 FILLER_43_169
*1494 FILLER_43_181
*1495 FILLER_43_193
*1496 FILLER_43_205
*1497 FILLER_43_217
*1498 FILLER_43_22
*1499 FILLER_43_223
*1500 FILLER_43_225
*1501 FILLER_43_237
*1502 FILLER_43_249
*1503 FILLER_43_261
*1504 FILLER_43_273
*1505 FILLER_43_279
*1506 FILLER_43_281
*1507 FILLER_43_29
*1508 FILLER_43_293
*1509 FILLER_43_3
*1510 FILLER_43_41
*1511 FILLER_43_48
*1512 FILLER_43_57
*1513 FILLER_43_69
*1514 FILLER_43_81
*1515 FILLER_43_93
*1516 FILLER_44_109
*1517 FILLER_44_121
*1518 FILLER_44_133
*1519 FILLER_44_139
*1520 FILLER_44_141
*1521 FILLER_44_153
*1522 FILLER_44_165
*1523 FILLER_44_177
*1524 FILLER_44_189
*1525 FILLER_44_195
*1526 FILLER_44_197
*1527 FILLER_44_209
*1528 FILLER_44_22
*1529 FILLER_44_221
*1530 FILLER_44_233
*1531 FILLER_44_245
*1532 FILLER_44_251
*1533 FILLER_44_253
*1534 FILLER_44_265
*1535 FILLER_44_277
*1536 FILLER_44_289
*1537 FILLER_44_29
*1538 FILLER_44_297
*1539 FILLER_44_3
*1540 FILLER_44_41
*1541 FILLER_44_53
*1542 FILLER_44_65
*1543 FILLER_44_77
*1544 FILLER_44_83
*1545 FILLER_44_85
*1546 FILLER_44_9
*1547 FILLER_44_97
*1548 FILLER_45_105
*1549 FILLER_45_111
*1550 FILLER_45_113
*1551 FILLER_45_125
*1552 FILLER_45_137
*1553 FILLER_45_149
*1554 FILLER_45_161
*1555 FILLER_45_167
*1556 FILLER_45_169
*1557 FILLER_45_181
*1558 FILLER_45_193
*1559 FILLER_45_205
*1560 FILLER_45_217
*1561 FILLER_45_223
*1562 FILLER_45_225
*1563 FILLER_45_237
*1564 FILLER_45_249
*1565 FILLER_45_261
*1566 FILLER_45_273
*1567 FILLER_45_279
*1568 FILLER_45_281
*1569 FILLER_45_293
*1570 FILLER_45_3
*1571 FILLER_45_43
*1572 FILLER_45_55
*1573 FILLER_45_57
*1574 FILLER_45_69
*1575 FILLER_45_81
*1576 FILLER_45_93
*1577 FILLER_46_109
*1578 FILLER_46_121
*1579 FILLER_46_133
*1580 FILLER_46_139
*1581 FILLER_46_141
*1582 FILLER_46_153
*1583 FILLER_46_165
*1584 FILLER_46_177
*1585 FILLER_46_189
*1586 FILLER_46_195
*1587 FILLER_46_197
*1588 FILLER_46_209
*1589 FILLER_46_21
*1590 FILLER_46_221
*1591 FILLER_46_233
*1592 FILLER_46_245
*1593 FILLER_46_251
*1594 FILLER_46_253
*1595 FILLER_46_265
*1596 FILLER_46_27
*1597 FILLER_46_277
*1598 FILLER_46_289
*1599 FILLER_46_29
*1600 FILLER_46_297
*1601 FILLER_46_3
*1602 FILLER_46_41
*1603 FILLER_46_45
*1604 FILLER_46_62
*1605 FILLER_46_82
*1606 FILLER_46_85
*1607 FILLER_46_9
*1608 FILLER_46_97
*1609 FILLER_47_110
*1610 FILLER_47_113
*1611 FILLER_47_125
*1612 FILLER_47_137
*1613 FILLER_47_149
*1614 FILLER_47_161
*1615 FILLER_47_167
*1616 FILLER_47_169
*1617 FILLER_47_17
*1618 FILLER_47_181
*1619 FILLER_47_193
*1620 FILLER_47_205
*1621 FILLER_47_217
*1622 FILLER_47_223
*1623 FILLER_47_225
*1624 FILLER_47_237
*1625 FILLER_47_249
*1626 FILLER_47_261
*1627 FILLER_47_273
*1628 FILLER_47_279
*1629 FILLER_47_281
*1630 FILLER_47_29
*1631 FILLER_47_293
*1632 FILLER_47_3
*1633 FILLER_47_51
*1634 FILLER_47_55
*1635 FILLER_47_57
*1636 FILLER_47_61
*1637 FILLER_47_78
*1638 FILLER_47_9
*1639 FILLER_47_98
*1640 FILLER_48_109
*1641 FILLER_48_121
*1642 FILLER_48_133
*1643 FILLER_48_139
*1644 FILLER_48_141
*1645 FILLER_48_15
*1646 FILLER_48_153
*1647 FILLER_48_165
*1648 FILLER_48_177
*1649 FILLER_48_189
*1650 FILLER_48_195
*1651 FILLER_48_197
*1652 FILLER_48_209
*1653 FILLER_48_221
*1654 FILLER_48_233
*1655 FILLER_48_245
*1656 FILLER_48_251
*1657 FILLER_48_253
*1658 FILLER_48_265
*1659 FILLER_48_27
*1660 FILLER_48_277
*1661 FILLER_48_289
*1662 FILLER_48_29
*1663 FILLER_48_297
*1664 FILLER_48_3
*1665 FILLER_48_41
*1666 FILLER_48_63
*1667 FILLER_48_75
*1668 FILLER_48_83
*1669 FILLER_48_85
*1670 FILLER_48_97
*1671 FILLER_49_105
*1672 FILLER_49_111
*1673 FILLER_49_113