*SPEF "ieee 1481-1999"
*DESIGN "user_module_348260124451668562"
*DATE "11:11:11 Fri 11 11, 1111"
*VENDOR "OpenRCX"
*PROGRAM "Parallel Extraction"
*VERSION "1.0"
*DESIGN_FLOW "NAME_SCOPE LOCAL" "PIN_CAP NONE"
*DIVIDER /
*DELIMITER :
*BUS_DELIMITER []
*T_UNIT 1 NS
*C_UNIT 1 PF
*R_UNIT 1 OHM
*L_UNIT 1 HENRY

*NAME_MAP
*1 io_in[0]
*2 io_in[1]
*3 io_in[2]
*4 io_in[3]
*5 io_in[4]
*6 io_in[5]
*7 io_in[6]
*8 io_in[7]
*9 io_out[0]
*10 io_out[1]
*11 io_out[2]
*12 io_out[3]
*13 net4
*14 net5
*15 net6
*16 net7
*19 _00_
*20 _01_
*21 clknet_0_io_in[0]
*22 clknet_2_0__leaf_io_in[0]
*23 clknet_2_1__leaf_io_in[0]
*24 clknet_2_2__leaf_io_in[0]
*25 clknet_2_3__leaf_io_in[0]
*26 flop1\.d
*27 flop1\.q
*28 flop10\.d
*29 flop10\.q
*30 flop11\.q
*31 flop12\.q
*32 flop13\.q
*33 flop14\.q
*34 flop15\.q
*35 flop16\.d
*36 flop16\.q
*37 flop17\.q
*38 flop18\.q
*39 flop19\.q
*40 flop2\.q
*41 flop20\.q
*42 flop21\.q
*43 flop22\.q
*44 flop23\.q
*45 flop24\.q
*46 flop25\.q
*47 flop26\.q
*48 flop27\.q
*49 flop28\.q
*50 flop29\.q
*51 flop3\.q
*52 flop30\.q
*53 flop4\.q
*54 flop5\.q
*55 flop6\.q
*56 flop7\.q
*57 flop8\.q
*58 net1
*59 net10
*60 net11
*61 net12
*62 net13
*63 net14
*64 net15
*65 net16
*66 net17
*67 net18
*68 net19
*69 net2
*70 net20
*71 net21
*72 net22
*73 net23
*74 net24
*75 net25
*76 net26
*77 net27
*78 net28
*79 net29
*80 net3
*81 net30
*82 net31
*83 net32
*84 net33
*85 net34
*86 net35
*87 net8
*88 net9
*89 xor4\.out
*90 xor6\.out
*91 FILLER_0_109
*92 FILLER_0_113
*93 FILLER_0_125
*94 FILLER_0_137
*95 FILLER_0_141
*96 FILLER_0_15
*97 FILLER_0_153
*98 FILLER_0_165
*99 FILLER_0_169
*100 FILLER_0_181
*101 FILLER_0_193
*102 FILLER_0_197
*103 FILLER_0_209
*104 FILLER_0_221
*105 FILLER_0_225
*106 FILLER_0_237
*107 FILLER_0_249
*108 FILLER_0_253
*109 FILLER_0_265
*110 FILLER_0_27
*111 FILLER_0_277
*112 FILLER_0_281
*113 FILLER_0_29
*114 FILLER_0_293
*115 FILLER_0_3
*116 FILLER_0_41
*117 FILLER_0_53
*118 FILLER_0_57
*119 FILLER_0_69
*120 FILLER_0_81
*121 FILLER_0_85
*122 FILLER_0_97
*123 FILLER_10_109
*124 FILLER_10_121
*125 FILLER_10_133
*126 FILLER_10_139
*127 FILLER_10_141
*128 FILLER_10_153
*129 FILLER_10_165
*130 FILLER_10_177
*131 FILLER_10_189
*132 FILLER_10_195
*133 FILLER_10_197
*134 FILLER_10_209
*135 FILLER_10_221
*136 FILLER_10_233
*137 FILLER_10_24
*138 FILLER_10_245
*139 FILLER_10_251
*140 FILLER_10_253
*141 FILLER_10_265
*142 FILLER_10_277
*143 FILLER_10_289
*144 FILLER_10_29
*145 FILLER_10_297
*146 FILLER_10_3
*147 FILLER_10_43
*148 FILLER_10_55
*149 FILLER_10_67
*150 FILLER_10_7
*151 FILLER_10_79
*152 FILLER_10_83
*153 FILLER_10_85
*154 FILLER_10_97
*155 FILLER_11_105
*156 FILLER_11_111
*157 FILLER_11_113
*158 FILLER_11_125
*159 FILLER_11_137
*160 FILLER_11_149
*161 FILLER_11_161
*162 FILLER_11_167
*163 FILLER_11_169
*164 FILLER_11_181
*165 FILLER_11_193
*166 FILLER_11_205
*167 FILLER_11_217
*168 FILLER_11_223
*169 FILLER_11_225
*170 FILLER_11_237
*171 FILLER_11_249
*172 FILLER_11_26
*173 FILLER_11_261
*174 FILLER_11_273
*175 FILLER_11_279
*176 FILLER_11_281
*177 FILLER_11_293
*178 FILLER_11_3
*179 FILLER_11_46
*180 FILLER_11_54
*181 FILLER_11_57
*182 FILLER_11_69
*183 FILLER_11_81
*184 FILLER_11_9
*185 FILLER_11_93
*186 FILLER_12_109
*187 FILLER_12_121
*188 FILLER_12_133
*189 FILLER_12_139
*190 FILLER_12_141
*191 FILLER_12_153
*192 FILLER_12_165
*193 FILLER_12_177
*194 FILLER_12_189
*195 FILLER_12_195
*196 FILLER_12_197
*197 FILLER_12_209
*198 FILLER_12_221
*199 FILLER_12_233
*200 FILLER_12_245
*201 FILLER_12_251
*202 FILLER_12_253
*203 FILLER_12_26
*204 FILLER_12_265
*205 FILLER_12_277
*206 FILLER_12_289
*207 FILLER_12_29
*208 FILLER_12_297
*209 FILLER_12_3
*210 FILLER_12_47
*211 FILLER_12_59
*212 FILLER_12_71
*213 FILLER_12_83
*214 FILLER_12_85
*215 FILLER_12_9
*216 FILLER_12_97
*217 FILLER_13_105
*218 FILLER_13_111
*219 FILLER_13_113
*220 FILLER_13_125
*221 FILLER_13_137
*222 FILLER_13_149
*223 FILLER_13_161
*224 FILLER_13_167
*225 FILLER_13_169
*226 FILLER_13_181
*227 FILLER_13_193
*228 FILLER_13_205
*229 FILLER_13_217
*230 FILLER_13_223
*231 FILLER_13_225
*232 FILLER_13_237
*233 FILLER_13_249
*234 FILLER_13_26
*235 FILLER_13_261
*236 FILLER_13_273
*237 FILLER_13_279
*238 FILLER_13_281
*239 FILLER_13_293
*240 FILLER_13_3
*241 FILLER_13_34
*242 FILLER_13_43
*243 FILLER_13_51
*244 FILLER_13_55
*245 FILLER_13_57
*246 FILLER_13_69
*247 FILLER_13_81
*248 FILLER_13_9
*249 FILLER_13_93
*250 FILLER_14_109
*251 FILLER_14_121
*252 FILLER_14_133
*253 FILLER_14_139
*254 FILLER_14_141
*255 FILLER_14_153
*256 FILLER_14_165
*257 FILLER_14_177
*258 FILLER_14_189
*259 FILLER_14_195
*260 FILLER_14_197
*261 FILLER_14_209
*262 FILLER_14_221
*263 FILLER_14_233
*264 FILLER_14_245
*265 FILLER_14_251
*266 FILLER_14_253
*267 FILLER_14_26
*268 FILLER_14_265
*269 FILLER_14_277
*270 FILLER_14_289
*271 FILLER_14_29
*272 FILLER_14_297
*273 FILLER_14_3
*274 FILLER_14_39
*275 FILLER_14_51
*276 FILLER_14_63
*277 FILLER_14_75
*278 FILLER_14_83
*279 FILLER_14_85
*280 FILLER_14_9
*281 FILLER_14_97
*282 FILLER_15_105
*283 FILLER_15_111
*284 FILLER_15_113
*285 FILLER_15_125
*286 FILLER_15_137
*287 FILLER_15_149
*288 FILLER_15_161
*289 FILLER_15_167
*290 FILLER_15_169
*291 FILLER_15_181
*292 FILLER_15_193
*293 FILLER_15_205
*294 FILLER_15_217
*295 FILLER_15_22
*296 FILLER_15_223
*297 FILLER_15_225
*298 FILLER_15_237
*299 FILLER_15_249
*300 FILLER_15_26
*301 FILLER_15_261
*302 FILLER_15_273
*303 FILLER_15_279
*304 FILLER_15_281
*305 FILLER_15_293
*306 FILLER_15_3
*307 FILLER_15_35
*308 FILLER_15_47
*309 FILLER_15_54
*310 FILLER_15_57
*311 FILLER_15_69
*312 FILLER_15_81
*313 FILLER_15_93
*314 FILLER_16_109
*315 FILLER_16_121
*316 FILLER_16_133
*317 FILLER_16_139
*318 FILLER_16_141
*319 FILLER_16_153
*320 FILLER_16_165
*321 FILLER_16_177
*322 FILLER_16_189
*323 FILLER_16_195
*324 FILLER_16_197
*325 FILLER_16_209
*326 FILLER_16_221
*327 FILLER_16_233
*328 FILLER_16_245
*329 FILLER_16_251
*330 FILLER_16_253
*331 FILLER_16_26
*332 FILLER_16_265
*333 FILLER_16_277
*334 FILLER_16_289
*335 FILLER_16_29
*336 FILLER_16_297
*337 FILLER_16_3
*338 FILLER_16_39
*339 FILLER_16_51
*340 FILLER_16_63
*341 FILLER_16_75
*342 FILLER_16_83
*343 FILLER_16_85
*344 FILLER_16_9
*345 FILLER_16_97
*346 FILLER_17_105
*347 FILLER_17_111
*348 FILLER_17_113
*349 FILLER_17_125
*350 FILLER_17_137
*351 FILLER_17_149
*352 FILLER_17_161
*353 FILLER_17_167
*354 FILLER_17_169
*355 FILLER_17_181
*356 FILLER_17_193
*357 FILLER_17_205
*358 FILLER_17_217
*359 FILLER_17_223
*360 FILLER_17_225
*361 FILLER_17_23
*362 FILLER_17_237
*363 FILLER_17_249
*364 FILLER_17_261
*365 FILLER_17_273
*366 FILLER_17_279
*367 FILLER_17_281
*368 FILLER_17_293
*369 FILLER_17_3
*370 FILLER_17_47
*371 FILLER_17_55
*372 FILLER_17_57
*373 FILLER_17_69
*374 FILLER_17_81
*375 FILLER_17_93
*376 FILLER_18_109
*377 FILLER_18_121
*378 FILLER_18_133
*379 FILLER_18_139
*380 FILLER_18_141
*381 FILLER_18_153
*382 FILLER_18_165
*383 FILLER_18_177
*384 FILLER_18_189
*385 FILLER_18_195
*386 FILLER_18_197
*387 FILLER_18_209
*388 FILLER_18_221
*389 FILLER_18_233
*390 FILLER_18_245
*391 FILLER_18_251
*392 FILLER_18_253
*393 FILLER_18_26
*394 FILLER_18_265
*395 FILLER_18_277
*396 FILLER_18_289
*397 FILLER_18_29
*398 FILLER_18_297
*399 FILLER_18_3
*400 FILLER_18_47
*401 FILLER_18_59
*402 FILLER_18_71
*403 FILLER_18_83
*404 FILLER_18_85
*405 FILLER_18_9
*406 FILLER_18_97
*407 FILLER_19_103
*408 FILLER_19_11
*409 FILLER_19_111
*410 FILLER_19_113
*411 FILLER_19_125
*412 FILLER_19_137
*413 FILLER_19_149
*414 FILLER_19_161
*415 FILLER_19_167
*416 FILLER_19_169
*417 FILLER_19_181
*418 FILLER_19_193
*419 FILLER_19_205
*420 FILLER_19_217
*421 FILLER_19_223
*422 FILLER_19_225
*423 FILLER_19_237
*424 FILLER_19_249
*425 FILLER_19_261
*426 FILLER_19_273
*427 FILLER_19_279
*428 FILLER_19_281
*429 FILLER_19_29
*430 FILLER_19_293
*431 FILLER_19_3
*432 FILLER_19_49
*433 FILLER_19_55
*434 FILLER_19_57
*435 FILLER_19_67
*436 FILLER_19_79
*437 FILLER_19_91
*438 FILLER_1_105
*439 FILLER_1_111
*440 FILLER_1_113
*441 FILLER_1_125
*442 FILLER_1_137
*443 FILLER_1_149
*444 FILLER_1_15
*445 FILLER_1_161
*446 FILLER_1_167
*447 FILLER_1_169
*448 FILLER_1_181
*449 FILLER_1_193
*450 FILLER_1_205
*451 FILLER_1_217
*452 FILLER_1_223
*453 FILLER_1_225
*454 FILLER_1_237
*455 FILLER_1_249
*456 FILLER_1_25
*457 FILLER_1_261
*458 FILLER_1_273
*459 FILLER_1_279
*460 FILLER_1_281
*461 FILLER_1_293
*462 FILLER_1_3
*463 FILLER_1_37
*464 FILLER_1_49
*465 FILLER_1_55
*466 FILLER_1_57
*467 FILLER_1_69
*468 FILLER_1_81
*469 FILLER_1_93
*470 FILLER_20_109
*471 FILLER_20_121
*472 FILLER_20_133
*473 FILLER_20_139
*474 FILLER_20_141
*475 FILLER_20_153
*476 FILLER_20_165
*477 FILLER_20_177
*478 FILLER_20_189
*479 FILLER_20_195
*480 FILLER_20_197
*481 FILLER_20_209
*482 FILLER_20_221
*483 FILLER_20_233
*484 FILLER_20_245
*485 FILLER_20_251
*486 FILLER_20_253
*487 FILLER_20_26
*488 FILLER_20_265
*489 FILLER_20_277
*490 FILLER_20_289
*491 FILLER_20_29
*492 FILLER_20_297
*493 FILLER_20_3
*494 FILLER_20_47
*495 FILLER_20_59
*496 FILLER_20_71
*497 FILLER_20_83
*498 FILLER_20_85
*499 FILLER_20_9
*500 FILLER_20_97
*501 FILLER_21_105
*502 FILLER_21_111
*503 FILLER_21_113
*504 FILLER_21_125
*505 FILLER_21_137
*506 FILLER_21_149
*507 FILLER_21_15
*508 FILLER_21_161
*509 FILLER_21_167
*510 FILLER_21_169
*511 FILLER_21_181
*512 FILLER_21_193
*513 FILLER_21_205
*514 FILLER_21_217
*515 FILLER_21_223
*516 FILLER_21_225
*517 FILLER_21_237
*518 FILLER_21_249
*519 FILLER_21_261
*520 FILLER_21_273
*521 FILLER_21_279
*522 FILLER_21_281
*523 FILLER_21_293
*524 FILLER_21_3
*525 FILLER_21_36
*526 FILLER_21_48
*527 FILLER_21_57
*528 FILLER_21_69
*529 FILLER_21_81
*530 FILLER_21_93
*531 FILLER_22_109
*532 FILLER_22_121
*533 FILLER_22_133
*534 FILLER_22_139
*535 FILLER_22_141
*536 FILLER_22_153
*537 FILLER_22_165
*538 FILLER_22_177
*539 FILLER_22_189
*540 FILLER_22_195
*541 FILLER_22_197
*542 FILLER_22_209
*543 FILLER_22_221
*544 FILLER_22_233
*545 FILLER_22_245
*546 FILLER_22_25
*547 FILLER_22_251
*548 FILLER_22_253
*549 FILLER_22_265
*550 FILLER_22_277
*551 FILLER_22_289
*552 FILLER_22_29
*553 FILLER_22_297
*554 FILLER_22_3
*555 FILLER_22_39
*556 FILLER_22_51
*557 FILLER_22_63
*558 FILLER_22_75
*559 FILLER_22_83
*560 FILLER_22_85
*561 FILLER_22_97
*562 FILLER_23_105
*563 FILLER_23_11
*564 FILLER_23_111
*565 FILLER_23_113
*566 FILLER_23_125
*567 FILLER_23_137
*568 FILLER_23_149
*569 FILLER_23_161
*570 FILLER_23_167
*571 FILLER_23_169
*572 FILLER_23_181
*573 FILLER_23_193
*574 FILLER_23_205
*575 FILLER_23_217
*576 FILLER_23_223
*577 FILLER_23_225
*578 FILLER_23_237
*579 FILLER_23_249
*580 FILLER_23_261
*581 FILLER_23_273
*582 FILLER_23_279
*583 FILLER_23_281
*584 FILLER_23_29
*585 FILLER_23_293
*586 FILLER_23_3
*587 FILLER_23_41
*588 FILLER_23_53
*589 FILLER_23_57
*590 FILLER_23_69
*591 FILLER_23_81
*592 FILLER_23_93
*593 FILLER_24_109
*594 FILLER_24_121
*595 FILLER_24_133
*596 FILLER_24_139
*597 FILLER_24_141
*598 FILLER_24_153
*599 FILLER_24_165
*600 FILLER_24_177
*601 FILLER_24_189
*602 FILLER_24_195
*603 FILLER_24_197
*604 FILLER_24_209
*605 FILLER_24_221
*606 FILLER_24_233
*607 FILLER_24_245
*608 FILLER_24_251
*609 FILLER_24_253
*610 FILLER_24_26
*611 FILLER_24_265
*612 FILLER_24_277
*613 FILLER_24_289
*614 FILLER_24_29
*615 FILLER_24_297
*616 FILLER_24_3
*617 FILLER_24_39
*618 FILLER_24_51
*619 FILLER_24_63
*620 FILLER_24_75
*621 FILLER_24_83
*622 FILLER_24_85
*623 FILLER_24_9
*624 FILLER_24_97
*625 FILLER_25_105
*626 FILLER_25_11
*627 FILLER_25_111
*628 FILLER_25_113
*629 FILLER_25_125
*630 FILLER_25_137
*631 FILLER_25_149
*632 FILLER_25_161
*633 FILLER_25_167
*634 FILLER_25_169
*635 FILLER_25_181
*636 FILLER_25_193
*637 FILLER_25_205
*638 FILLER_25_217
*639 FILLER_25_223
*640 FILLER_25_225
*641 FILLER_25_237
*642 FILLER_25_249
*643 FILLER_25_261
*644 FILLER_25_273
*645 FILLER_25_279
*646 FILLER_25_281
*647 FILLER_25_29
*648 FILLER_25_293
*649 FILLER_25_3
*650 FILLER_25_41
*651 FILLER_25_53
*652 FILLER_25_57
*653 FILLER_25_69
*654 FILLER_25_81
*655 FILLER_25_93
*656 FILLER_26_109
*657 FILLER_26_121
*658 FILLER_26_133
*659 FILLER_26_139
*660 FILLER_26_141
*661 FILLER_26_153
*662 FILLER_26_165
*663 FILLER_26_177
*664 FILLER_26_189
*665 FILLER_26_195
*666 FILLER_26_197
*667 FILLER_26_209
*668 FILLER_26_221
*669 FILLER_26_233
*670 FILLER_26_245
*671 FILLER_26_251
*672 FILLER_26_253
*673 FILLER_26_26
*674 FILLER_26_265
*675 FILLER_26_277
*676 FILLER_26_289
*677 FILLER_26_29
*678 FILLER_26_297
*679 FILLER_26_3
*680 FILLER_26_39
*681 FILLER_26_51
*682 FILLER_26_63
*683 FILLER_26_75
*684 FILLER_26_83
*685 FILLER_26_85
*686 FILLER_26_9
*687 FILLER_26_97
*688 FILLER_27_105
*689 FILLER_27_111
*690 FILLER_27_113
*691 FILLER_27_125
*692 FILLER_27_137
*693 FILLER_27_149
*694 FILLER_27_161
*695 FILLER_27_167
*696 FILLER_27_169
*697 FILLER_27_181
*698 FILLER_27_193
*699 FILLER_27_205
*700 FILLER_27_217
*701 FILLER_27_223
*702 FILLER_27_225
*703 FILLER_27_237
*704 FILLER_27_249
*705 FILLER_27_261
*706 FILLER_27_27
*707 FILLER_27_273
*708 FILLER_27_279
*709 FILLER_27_281
*710 FILLER_27_293
*711 FILLER_27_3
*712 FILLER_27_47
*713 FILLER_27_55
*714 FILLER_27_57
*715 FILLER_27_69
*716 FILLER_27_81
*717 FILLER_27_93
*718 FILLER_28_109
*719 FILLER_28_11
*720 FILLER_28_121
*721 FILLER_28_133
*722 FILLER_28_139
*723 FILLER_28_141
*724 FILLER_28_153
*725 FILLER_28_165
*726 FILLER_28_177
*727 FILLER_28_189
*728 FILLER_28_195
*729 FILLER_28_197
*730 FILLER_28_209
*731 FILLER_28_21
*732 FILLER_28_221
*733 FILLER_28_233
*734 FILLER_28_245
*735 FILLER_28_251
*736 FILLER_28_253
*737 FILLER_28_265
*738 FILLER_28_27
*739 FILLER_28_277
*740 FILLER_28_289
*741 FILLER_28_29
*742 FILLER_28_297
*743 FILLER_28_3
*744 FILLER_28_43
*745 FILLER_28_55
*746 FILLER_28_67
*747 FILLER_28_79
*748 FILLER_28_83
*749 FILLER_28_85
*750 FILLER_28_97
*751 FILLER_29_10
*752 FILLER_29_105
*753 FILLER_29_111
*754 FILLER_29_113
*755 FILLER_29_125
*756 FILLER_29_137
*757 FILLER_29_149
*758 FILLER_29_161
*759 FILLER_29_167
*760 FILLER_29_169
*761 FILLER_29_181
*762 FILLER_29_193
*763 FILLER_29_205
*764 FILLER_29_21
*765 FILLER_29_217
*766 FILLER_29_223
*767 FILLER_29_225
*768 FILLER_29_237
*769 FILLER_29_249
*770 FILLER_29_261
*771 FILLER_29_273
*772 FILLER_29_279
*773 FILLER_29_281
*774 FILLER_29_293
*775 FILLER_29_3
*776 FILLER_29_33
*777 FILLER_29_45
*778 FILLER_29_53
*779 FILLER_29_57
*780 FILLER_29_69
*781 FILLER_29_81
*782 FILLER_29_93
*783 FILLER_2_109
*784 FILLER_2_121
*785 FILLER_2_133
*786 FILLER_2_139
*787 FILLER_2_141
*788 FILLER_2_153
*789 FILLER_2_165
*790 FILLER_2_177
*791 FILLER_2_189
*792 FILLER_2_195
*793 FILLER_2_197
*794 FILLER_2_209
*795 FILLER_2_221
*796 FILLER_2_233
*797 FILLER_2_245
*798 FILLER_2_251
*799 FILLER_2_253
*800 FILLER_2_26
*801 FILLER_2_265
*802 FILLER_2_277
*803 FILLER_2_289
*804 FILLER_2_29
*805 FILLER_2_297
*806 FILLER_2_3
*807 FILLER_2_39
*808 FILLER_2_51
*809 FILLER_2_63
*810 FILLER_2_75
*811 FILLER_2_83
*812 FILLER_2_85
*813 FILLER_2_9
*814 FILLER_2_97
*815 FILLER_30_109
*816 FILLER_30_121
*817 FILLER_30_133
*818 FILLER_30_139
*819 FILLER_30_141
*820 FILLER_30_15
*821 FILLER_30_153
*822 FILLER_30_165
*823 FILLER_30_177
*824 FILLER_30_189
*825 FILLER_30_195
*826 FILLER_30_197
*827 FILLER_30_209
*828 FILLER_30_221
*829 FILLER_30_233
*830 FILLER_30_245
*831 FILLER_30_251
*832 FILLER_30_253
*833 FILLER_30_265
*834 FILLER_30_27
*835 FILLER_30_277
*836 FILLER_30_289
*837 FILLER_30_29
*838 FILLER_30_297
*839 FILLER_30_3
*840 FILLER_30_41
*841 FILLER_30_53
*842 FILLER_30_65
*843 FILLER_30_77
*844 FILLER_30_83
*845 FILLER_30_85
*846 FILLER_30_97
*847 FILLER_31_105
*848 FILLER_31_111
*849 FILLER_31_113
*850 FILLER_31_125
*851 FILLER_31_137
*852 FILLER_31_149
*853 FILLER_31_15
*854 FILLER_31_161
*855 FILLER_31_167
*856 FILLER_31_169
*857 FILLER_31_181
*858 FILLER_31_193
*859 FILLER_31_205
*860 FILLER_31_217
*861 FILLER_31_223
*862 FILLER_31_225
*863 FILLER_31_237
*864 FILLER_31_249
*865 FILLER_31_261
*866 FILLER_31_27
*867 FILLER_31_273
*868 FILLER_31_279
*869 FILLER_31_281
*870 FILLER_31_293
*871 FILLER_31_3
*872 FILLER_31_39
*873 FILLER_31_51
*874 FILLER_31_55
*875 FILLER_31_57
*876 FILLER_31_69
*877 FILLER_31_81
*878 FILLER_31_93
*879 FILLER_32_109
*880 FILLER_32_121
*881 FILLER_32_133
*882 FILLER_32_139
*883 FILLER_32_141
*884 FILLER_32_15
*885 FILLER_32_153
*886 FILLER_32_165
*887 FILLER_32_177
*888 FILLER_32_189
*889 FILLER_32_195
*890 FILLER_32_197
*891 FILLER_32_209
*892 FILLER_32_221
*893 FILLER_32_233
*894 FILLER_32_245
*895 FILLER_32_251
*896 FILLER_32_253
*897 FILLER_32_265
*898 FILLER_32_27
*899 FILLER_32_277
*900 FILLER_32_289
*901 FILLER_32_29
*902 FILLER_32_297
*903 FILLER_32_3
*904 FILLER_32_41
*905 FILLER_32_53
*906 FILLER_32_65
*907 FILLER_32_77
*908 FILLER_32_83
*909 FILLER_32_85
*910 FILLER_32_97
*911 FILLER_33_105
*912 FILLER_33_111
*913 FILLER_33_113
*914 FILLER_33_125
*915 FILLER_33_137
*916 FILLER_33_14
*917 FILLER_33_149
*918 FILLER_33_161
*919 FILLER_33_167
*920 FILLER_33_169
*921 FILLER_33_181
*922 FILLER_33_193
*923 FILLER_33_205
*924 FILLER_33_217
*925 FILLER_33_223
*926 FILLER_33_225
*927 FILLER_33_237
*928 FILLER_33_249
*929 FILLER_33_26
*930 FILLER_33_261
*931 FILLER_33_273
*932 FILLER_33_279
*933 FILLER_33_281
*934 FILLER_33_293
*935 FILLER_33_3
*936 FILLER_33_38
*937 FILLER_33_50
*938 FILLER_33_57
*939 FILLER_33_69
*940 FILLER_33_81
*941 FILLER_33_93
*942 FILLER_34_109
*943 FILLER_34_121
*944 FILLER_34_133
*945 FILLER_34_139
*946 FILLER_34_141
*947 FILLER_34_15
*948 FILLER_34_153
*949 FILLER_34_165
*950 FILLER_34_177
*951 FILLER_34_189
*952 FILLER_34_195
*953 FILLER_34_197
*954 FILLER_34_209
*955 FILLER_34_221
*956 FILLER_34_233
*957 FILLER_34_245
*958 FILLER_34_251
*959 FILLER_34_253
*960 FILLER_34_265
*961 FILLER_34_27
*962 FILLER_34_277
*963 FILLER_34_289
*964 FILLER_34_29
*965 FILLER_34_297
*966 FILLER_34_3
*967 FILLER_34_41
*968 FILLER_34_53
*969 FILLER_34_65
*970 FILLER_34_77
*971 FILLER_34_83
*972 FILLER_34_85
*973 FILLER_34_97
*974 FILLER_35_105
*975 FILLER_35_111
*976 FILLER_35_113
*977 FILLER_35_125
*978 FILLER_35_137
*979 FILLER_35_149
*980 FILLER_35_15
*981 FILLER_35_161
*982 FILLER_35_167
*983 FILLER_35_169
*984 FILLER_35_181
*985 FILLER_35_193
*986 FILLER_35_205
*987 FILLER_35_217
*988 FILLER_35_223
*989 FILLER_35_225
*990 FILLER_35_237
*991 FILLER_35_249
*992 FILLER_35_261
*993 FILLER_35_27
*994 FILLER_35_273
*995 FILLER_35_279
*996 FILLER_35_281
*997 FILLER_35_293
*998 FILLER_35_3
*999 FILLER_35_39
*1000 FILLER_35_51
*1001 FILLER_35_55
*1002 FILLER_35_57
*1003 FILLER_35_69
*1004 FILLER_35_81
*1005 FILLER_35_93
*1006 FILLER_36_109
*1007 FILLER_36_121
*1008 FILLER_36_133
*1009 FILLER_36_139
*1010 FILLER_36_141
*1011 FILLER_36_15
*1012 FILLER_36_153
*1013 FILLER_36_165
*1014 FILLER_36_177
*1015 FILLER_36_189
*1016 FILLER_36_195
*1017 FILLER_36_197
*1018 FILLER_36_209
*1019 FILLER_36_221
*1020 FILLER_36_233
*1021 FILLER_36_245
*1022 FILLER_36_251
*1023 FILLER_36_253
*1024 FILLER_36_265
*1025 FILLER_36_27
*1026 FILLER_36_277
*1027 FILLER_36_289
*1028 FILLER_36_29
*1029 FILLER_36_297
*1030 FILLER_36_3
*1031 FILLER_36_41
*1032 FILLER_36_53
*1033 FILLER_36_65
*1034 FILLER_36_77
*1035 FILLER_36_83
*1036 FILLER_36_85
*1037 FILLER_36_97
*1038 FILLER_37_105
*1039 FILLER_37_111
*1040 FILLER_37_113
*1041 FILLER_37_125
*1042 FILLER_37_137
*1043 FILLER_37_149
*1044 FILLER_37_15
*1045 FILLER_37_161
*1046 FILLER_37_167
*1047 FILLER_37_169
*1048 FILLER_37_181
*1049 FILLER_37_193
*1050 FILLER_37_205
*1051 FILLER_37_217
*1052 FILLER_37_223
*1053 FILLER_37_225
*1054 FILLER_37_237
*1055 FILLER_37_249
*1056 FILLER_37_261
*1057 FILLER_37_27
*1058 FILLER_37_273
*1059 FILLER_37_279
*1060 FILLER_37_281
*1061 FILLER_37_293
*1062 FILLER_37_3
*1063 FILLER_37_39
*1064 FILLER_37_51
*1065 FILLER_37_55
*1066 FILLER_37_57
*1067 FILLER_37_69
*1068 FILLER_37_81
*1069 FILLER_37_93
*1070 FILLER_38_109
*1071 FILLER_38_121
*1072 FILLER_38_133
*1073 FILLER_38_139
*1074 FILLER_38_141
*1075 FILLER_38_15
*1076 FILLER_38_153
*1077 FILLER_38_165
*1078 FILLER_38_177
*1079 FILLER_38_189
*1080 FILLER_38_195
*1081 FILLER_38_197
*1082 FILLER_38_209
*1083 FILLER_38_221
*1084 FILLER_38_233
*1085 FILLER_38_245
*1086 FILLER_38_251
*1087 FILLER_38_253
*1088 FILLER_38_265
*1089 FILLER_38_27
*1090 FILLER_38_277
*1091 FILLER_38_289
*1092 FILLER_38_29
*1093 FILLER_38_297
*1094 FILLER_38_3
*1095 FILLER_38_41
*1096 FILLER_38_53
*1097 FILLER_38_65
*1098 FILLER_38_77
*1099 FILLER_38_83
*1100 FILLER_38_85
*1101 FILLER_38_97
*1102 FILLER_39_105
*1103 FILLER_39_111
*1104 FILLER_39_113
*1105 FILLER_39_125
*1106 FILLER_39_137
*1107 FILLER_39_149
*1108 FILLER_39_15
*1109 FILLER_39_161
*1110 FILLER_39_167
*1111 FILLER_39_169
*1112 FILLER_39_181
*1113 FILLER_39_193
*1114 FILLER_39_205
*1115 FILLER_39_217
*1116 FILLER_39_223
*1117 FILLER_39_225
*1118 FILLER_39_237
*1119 FILLER_39_249
*1120 FILLER_39_261
*1121 FILLER_39_27
*1122 FILLER_39_273
*1123 FILLER_39_279
*1124 FILLER_39_281
*1125 FILLER_39_293
*1126 FILLER_39_3
*1127 FILLER_39_39
*1128 FILLER_39_51
*1129 FILLER_39_55
*1130 FILLER_39_57
*1131 FILLER_39_69
*1132 FILLER_39_81
*1133 FILLER_39_93
*1134 FILLER_3_105
*1135 FILLER_3_111
*1136 FILLER_3_113
*1137 FILLER_3_125
*1138 FILLER_3_137
*1139 FILLER_3_149
*1140 FILLER_3_161
*1141 FILLER_3_167
*1142 FILLER_3_169
*1143 FILLER_3_181
*1144 FILLER_3_193
*1145 FILLER_3_205
*1146 FILLER_3_217
*1147 FILLER_3_223
*1148 FILLER_3_225
*1149 FILLER_3_237
*1150 FILLER_3_249
*1151 FILLER_3_26
*1152 FILLER_3_261
*1153 FILLER_3_273
*1154 FILLER_3_279
*1155 FILLER_3_281
*1156 FILLER_3_293
*1157 FILLER_3_3
*1158 FILLER_3_46
*1159 FILLER_3_54
*1160 FILLER_3_57
*1161 FILLER_3_69
*1162 FILLER_3_81
*1163 FILLER_3_9
*1164 FILLER_3_93
*1165 FILLER_40_109
*1166 FILLER_40_121
*1167 FILLER_40_133
*1168 FILLER_40_139
*1169 FILLER_40_141
*1170 FILLER_40_15
*1171 FILLER_40_153
*1172 FILLER_40_165
*1173 FILLER_40_177
*1174 FILLER_40_189
*1175 FILLER_40_195
*1176 FILLER_40_197
*1177 FILLER_40_209
*1178 FILLER_40_221
*1179 FILLER_40_233
*1180 FILLER_40_245
*1181 FILLER_40_251
*1182 FILLER_40_253
*1183 FILLER_40_265
*1184 FILLER_40_27
*1185 FILLER_40_277
*1186 FILLER_40_289
*1187 FILLER_40_29
*1188 FILLER_40_297
*1189 FILLER_40_3
*1190 FILLER_40_41
*1191 FILLER_40_53
*1192 FILLER_40_65
*1193 FILLER_40_77
*1194 FILLER_40_83
*1195 FILLER_40_85
*1196 FILLER_40_97
*1197 FILLER_41_105
*1198 FILLER_41_111
*1199 FILLER_41_113
*1200 FILLER_41_125
*1201 FILLER_41_137
*1202 FILLER_41_149
*1203 FILLER_41_15
*1204 FILLER_41_161
*1205 FILLER_41_167
*1206 FILLER_41_169
*1207 FILLER_41_181
*1208 FILLER_41_193
*1209 FILLER_41_205
*1210 FILLER_41_217
*1211 FILLER_41_223
*1212 FILLER_41_225
*1213 FILLER_41_237
*1214 FILLER_41_249
*1215 FILLER_41_261
*1216 FILLER_41_27
*1217 FILLER_41_273
*1218 FILLER_41_279
*1219 FILLER_41_281
*1220 FILLER_41_293
*1221 FILLER_41_3
*1222 FILLER_41_39
*1223 FILLER_41_51
*1224 FILLER_41_55
*1225 FILLER_41_57
*1226 FILLER_41_69
*1227 FILLER_41_81
*1228 FILLER_41_93
*1229 FILLER_42_109
*1230 FILLER_42_121
*1231 FILLER_42_133
*1232 FILLER_42_139
*1233 FILLER_42_141
*1234 FILLER_42_15
*1235 FILLER_42_153
*1236 FILLER_42_165
*1237 FILLER_42_177
*1238 FILLER_42_189
*1239 FILLER_42_195
*1240 FILLER_42_197
*1241 FILLER_42_209
*1242 FILLER_42_221
*1243 FILLER_42_233
*1244 FILLER_42_245
*1245 FILLER_42_251
*1246 FILLER_42_253
*1247 FILLER_42_265
*1248 FILLER_42_27
*1249 FILLER_42_277
*1250 FILLER_42_289
*1251 FILLER_42_29
*1252 FILLER_42_297
*1253 FILLER_42_3
*1254 FILLER_42_41
*1255 FILLER_42_53
*1256 FILLER_42_65
*1257 FILLER_42_77
*1258 FILLER_42_83
*1259 FILLER_42_85
*1260 FILLER_42_97
*1261 FILLER_43_105
*1262 FILLER_43_111
*1263 FILLER_43_113
*1264 FILLER_43_125
*1265 FILLER_43_137
*1266 FILLER_43_149
*1267 FILLER_43_15
*1268 FILLER_43_161
*1269 FILLER_43_167
*1270 FILLER_43_169
*1271 FILLER_43_181
*1272 FILLER_43_193
*1273 FILLER_43_205
*1274 FILLER_43_217
*1275 FILLER_43_223
*1276 FILLER_43_225
*1277 FILLER_43_237
*1278 FILLER_43_249
*1279 FILLER_43_261
*1280 FILLER_43_27
*1281 FILLER_43_273
*1282 FILLER_43_279
*1283 FILLER_43_281
*1284 FILLER_43_293
*1285 FILLER_43_3
*1286 FILLER_43_39
*1287 FILLER_43_51
*1288 FILLER_43_55
*1289 FILLER_43_57
*1290 FILLER_43_69
*1291 FILLER_43_81
*1292 FILLER_43_93
*1293 FILLER_44_109
*1294 FILLER_44_121
*1295 FILLER_44_133
*1296 FILLER_44_139
*1297 FILLER_44_141
*1298 FILLER_44_15
*1299 FILLER_44_153
*1300 FILLER_44_165
*1301 FILLER_44_177
*1302 FILLER_44_189
*1303 FILLER_44_195
*1304 FILLER_44_197
*1305 FILLER_44_209
*1306 FILLER_44_221
*1307 FILLER_44_233
*1308 FILLER_44_245
*1309 FILLER_44_251
*1310 FILLER_44_253
*1311 FILLER_44_265
*1312 FILLER_44_27
*1313 FILLER_44_277
*1314 FILLER_44_289
*1315 FILLER_44_29
*1316 FILLER_44_297
*1317 FILLER_44_3
*1318 FILLER_44_41
*1319 FILLER_44_53
*1320 FILLER_44_65
*1321 FILLER_44_77
*1322 FILLER_44_83
*1323 FILLER_44_85
*1324 FILLER_44_97
*1325 FILLER_45_105
*1326 FILLER_45_111
*1327 FILLER_45_113
*1328 FILLER_45_125
*1329 FILLER_45_137
*1330 FILLER_45_149
*1331 FILLER_45_15
*1332 FILLER_45_161
*1333 FILLER_45_167
*1334 FILLER_45_169
*1335 FILLER_45_181
*1336 FILLER_45_193
*1337 FILLER_45_205
*1338 FILLER_45_217
*1339 FILLER_45_223
*1340 FILLER_45_225
*1341 FILLER_45_237
*1342 FILLER_45_249
*1343 FILLER_45_261
*1344 FILLER_45_27
*1345 FILLER_45_273
*1346 FILLER_45_279
*1347 FILLER_45_281
*1348 FILLER_45_293
*1349 FILLER_45_3
*1350 FILLER_45_39
*1351 FILLER_45_51
*1352 FILLER_45_55
*1353 FILLER_45_57
*1354 FILLER_45_69
*1355 FILLER_45_81
*1356 FILLER_45_93
*1357 FILLER_46_109
*1358 FILLER_46_121
*1359 FILLER_46_133
*1360 FILLER_46_139
*1361 FILLER_46_141
*1362 FILLER_46_153
*1363 FILLER_46_165
*1364 FILLER_46_177
*1365 FILLER_46_189
*1366 FILLER_46_195
*1367 FILLER_46_197
*1368 FILLER_46_20
*1369 FILLER_46_209
*1370 FILLER_46_221
*1371 FILLER_46_233
*1372 FILLER_46_245
*1373 FILLER_46_251
*1374 FILLER_46_253
*1375 FILLER_46_265
*1376 FILLER_46_277
*1377 FILLER_46_289
*1378 FILLER_46_29
*1379 FILLER_46_297
*1380 FILLER_46_3
*1381 FILLER_46_41
*1382 FILLER_46_53
*1383 FILLER_46_65
*1384 FILLER_46_77
*1385 FILLER_46_8
*1386 FILLER_46_83
*1387 FILLER_46_85
*1388 FILLER_46_97
*1389 FILLER_47_105
*1390 FILLER_47_111
*1391 FILLER_47_113
*1392 FILLER_47_125
*1393 FILLER_47_137
*1394 FILLER_47_149
*1395 FILLER_47_15
*1396 FILLER_47_161
*1397 FILLER_47_167
*1398 FILLER_47_169
*1399 FILLER_47_181
*1400 FILLER_47_193
*1401 FILLER_47_205
*1402 FILLER_47_217
*1403 FILLER_47_223
*1404 FILLER_47_225
*1405 FILLER_47_237
*1406 FILLER_47_249
*1407 FILLER_47_261
*1408 FILLER_47_27
*1409 FILLER_47_273
*1410 FILLER_47_279
*1411 FILLER_47_281
*1412 FILLER_47_293
*1413 FILLER_47_3
*1414 FILLER_47_39
*1415 FILLER_47_51
*1416 FILLER_47_55
*1417 FILLER_47_57
*1418 FILLER_47_69
*1419 FILLER_47_81
*1420 FILLER_47_93
*1421 FILLER_48_109
*1422 FILLER_48_121
*1423 FILLER_48_133
*1424 FILLER_48_139
*1425 FILLER_48_141
*1426 FILLER_48_15
*1427 FILLER_48_153
*1428 FILLER_48_165
*1429 FILLER_48_177
*1430 FILLER_48_189
*1431 FILLER_48_195
*1432 FILLER_48_197
*1433 FILLER_48_209
*1434 FILLER_48_221
*1435 FILLER_48_233
*1436 FILLER_48_245
*1437 FILLER_48_251
*1438 FILLER_48_253
*1439 FILLER_48_265
*1440 FILLER_48_27
*1441 FILLER_48_277
*1442 FILLER_48_289
*1443 FILLER_48_29
*1444 FILLER_48_297
*1445 FILLER_48_3
*1446 FILLER_48_41
*1447 FILLER_48_53
*1448 FILLER_48_65
*1449 FILLER_48_77
*1450 FILLER_48_83
*1451 FILLER_48_85
*1452 FILLER_48_97
*1453 FILLER_49_105
*1454 FILLER_49_111
*1455 FILLER_49_113
*1456 FILLER_49_125
*1457 FILLER_49_137
*1458 FILLER_49_149
*1459 FILLER_49_15
*1460 FILLER_49_161
*1461 FILLER_49_167
*1462 FILLER_49_169
*1463 FILLER_49_181
*1464 FILLER_49_193
*1465 FILLER_49_205
*1466 FILLER_49_217
*1467 FILLER_49_223
*1468 FILLER_49_225
*1469 FILLER_49_237
*1470 FILLER_49_249
*1471 FILLER_49_261
*1472 FILLER_49_27
*1473 FILLER_49_273
*1474 FILLER_49_279
*1475 FILLER_49_281
*1476 FILLER_49_293
*1477 FILLER_49_3
*1478 FILLER_49_39
*1479 FILLER_49_51
*1480 FILLER_49_55
*1481 FILLER_49_57
*1482 FILLER_49_69
*1483 FILLER_49_81
*1484 FILLER_49_93
*1485 FILLER_4_109
*1486 FILLER_4_121
*1487 FILLER_4_133
*1488 FILLER_4_139
*1489 FILLER_4_141
*1490 FILLER_4_153
*1491 FILLER_4_165
*1492 FILLER_4_177
*1493 FILLER_4_189
*1494 FILLER_4_195
*1495 FILLER_4_197
*1496 FILLER_4_209
*1497 FILLER_4_21
*1498 FILLER_4_221
*1499 FILLER_4_233
*1500 FILLER_4_245
*1501 FILLER_4_251
*1502 FILLER_4_253
*1503 FILLER_4_265
*1504 FILLER_4_27
*1505 FILLER_4_277
*1506 FILLER_4_289
*1507 FILLER_4_29
*1508 FILLER_4_297
*1509 FILLER_4_3
*1510 FILLER_4_47
*1511 FILLER_4_59
*1512 FILLER_4_71
*1513 FILLER_4_83
*1514 FILLER_4_85
*1515 FILLER_4_97
*1516 FILLER_50_109
*1517 FILLER_50_121
*1518 FILLER_50_133
*1519 FILLER_50_139
*1520 FILLER_50_141
*1521 FILLER_50_153
*1522 FILLER_50_165
*1523 FILLER_50_177
*1524 FILLER_50_189
*1525 FILLER_50_195
*1526 FILLER_50_197
*1527 FILLER_50_20
*1528 FILLER_50_209
*1529 FILLER_50_221
*1530 FILLER_50_233
*1531 FILLER_50_245
*1532 FILLER_50_251
*1533 FILLER_50_253
*1534 FILLER_50_265
*1535 FILLER_50_277
*1536 FILLER_50_289
*1537 FILLER_50_29
*1538 FILLER_50_297
*1539 FILLER_50_3
*1540 FILLER_50_41
*1541 FILLER_50_53
*1542 FILLER_50_65
*1543 FILLER_50_77
*1544 FILLER_50_8
*1545 FILLER_50_83
*1546 FILLER_50_85
*1547 FILLER_50_97
*1548 FILLER_51_105
*1549 FILLER_51_111
*1550 FILLER_51_113
*1551 FILLER_51_125
*1552 FILLER_51_137
*1553 FILLER_51_149
*1554 FILLER_51_15
*1555 FILLER_51_161
*1556 FILLER_51_167
*1557 FILLER_51_169
*1558 FILLER_51_181
*1559 FILLER_51_193
*1560 FILLER_51_205
*1561 FILLER_51_217
*1562 FILLER_51_223
*1563 FILLER_51_225
*1564 FILLER_51_237
*1565 FILLER_51_249
*1566 FILLER_51_261
*1567 FILLER_51_27
*1568 FILLER_51_273
*1569 FILLER_51_279
*1570 FILLER_51_281
*1571 FILLER_51_293
*1572 FILLER_51_3
*1573 FILLER_51_39
*1574 FILLER_51_51
*1575 FILLER_51_55
*1576 FILLER_51_57
*1577 FILLER_51_69
*1578 FILLER_51_81
*1579 FILLER_51_93
*1580 FILLER_52_109
*1581 FILLER_52_121
*1582 FILLER_52_133
*1583 FILLER_52_139
*1584 FILLER_52_141
*1585 FILLER_52_15
*1586 FILLER_52_153
*1587 FILLER_52_165
*1588 FILLER_52_177
*1589 FILLER_52_189
*1590 FILLER_52_195
*1591 FILLER_52_197
*1592 FILLER_52_209
*1593 FILLER_52_221
*1594 FILLER_52_233
*1595 FILLER_52_245
*1596 FILLER_52_251
*1597 FILLER_52_253
*1598 FILLER_52_265
*1599 FILLER_52_27