*SPEF "ieee 1481-1999"
*DESIGN "user_module_341279123277087315"
*DATE "11:11:11 Fri 11 11, 1111"
*VENDOR "OpenRCX"
*PROGRAM "Parallel Extraction"
*VERSION "1.0"
*DESIGN_FLOW "NAME_SCOPE LOCAL" "PIN_CAP NONE"
*DIVIDER /
*DELIMITER :
*BUS_DELIMITER []
*T_UNIT 1 NS
*C_UNIT 1 PF
*R_UNIT 1 OHM
*L_UNIT 1 HENRY

*NAME_MAP
*1 io_in[0]
*2 io_in[1]
*3 io_in[2]
*4 io_in[3]
*5 io_in[4]
*6 io_in[5]
*7 io_in[6]
*8 io_in[7]
*9 io_out[0]
*10 io_out[1]
*11 io_out[2]
*12 io_out[3]
*13 io_out[4]
*14 io_out[5]
*15 io_out[6]
*16 net7
*19 _00_
*20 _01_
*21 _02_
*22 _03_
*23 _04_
*24 _05_
*25 _06_
*26 _07_
*27 _08_
*28 _09_
*29 _10_
*30 _11_
*31 _12_
*32 _13_
*33 _14_
*34 _15_
*35 _16_
*36 _17_
*37 _18_
*38 _19_
*39 _20_
*40 _21_
*41 _22_
*42 _23_
*43 _24_
*44 _25_
*45 _26_
*46 clknet_0_io_in[0]
*47 clknet_1_0__leaf_io_in[0]
*48 clknet_1_1__leaf_io_in[0]
*49 flipflop10\.clk
*50 flipflop10\.d
*51 flipflop10\.q
*52 flipflop16\.clk
*53 flipflop16\.d
*54 flipflop16\.q
*55 flipflop17\.d
*56 flipflop17\.q
*57 flipflop18\.d
*58 flipflop18\.q
*59 flipflop19\.d
*60 flipflop19\.q
*61 flipflop2\.d
*62 flipflop2\.q
*63 flipflop3\.d
*64 flipflop3\.q
*65 flipflop4\.d
*66 flipflop4\.q
*67 flipflop5\.d
*68 flipflop5\.q
*69 flipflop6\.d
*70 flipflop6\.q
*71 flipflop7\.d
*72 flipflop7\.q
*73 flipflop8\.d
*74 flipflop8\.q
*75 flipflop9\.d
*76 gate54\.out
*77 gate58\.out
*78 gate63\.out
*79 gate67\.out
*80 gate70\.out
*81 gate75\.out
*82 gate78\.out
*83 net1
*84 net2
*85 net3
*86 net4
*87 net5
*88 net6
*89 FILLER_0_109
*90 FILLER_0_113
*91 FILLER_0_125
*92 FILLER_0_137
*93 FILLER_0_141
*94 FILLER_0_153
*95 FILLER_0_165
*96 FILLER_0_169
*97 FILLER_0_181
*98 FILLER_0_193
*99 FILLER_0_197
*100 FILLER_0_209
*101 FILLER_0_221
*102 FILLER_0_225
*103 FILLER_0_237
*104 FILLER_0_249
*105 FILLER_0_253
*106 FILLER_0_26
*107 FILLER_0_265
*108 FILLER_0_277
*109 FILLER_0_281
*110 FILLER_0_29
*111 FILLER_0_293
*112 FILLER_0_3
*113 FILLER_0_40
*114 FILLER_0_52
*115 FILLER_0_57
*116 FILLER_0_69
*117 FILLER_0_81
*118 FILLER_0_85
*119 FILLER_0_97
*120 FILLER_10_109
*121 FILLER_10_121
*122 FILLER_10_133
*123 FILLER_10_139
*124 FILLER_10_141
*125 FILLER_10_15
*126 FILLER_10_153
*127 FILLER_10_165
*128 FILLER_10_177
*129 FILLER_10_189
*130 FILLER_10_195
*131 FILLER_10_197
*132 FILLER_10_209
*133 FILLER_10_221
*134 FILLER_10_233
*135 FILLER_10_245
*136 FILLER_10_251
*137 FILLER_10_253
*138 FILLER_10_265
*139 FILLER_10_27
*140 FILLER_10_277
*141 FILLER_10_289
*142 FILLER_10_29
*143 FILLER_10_297
*144 FILLER_10_3
*145 FILLER_10_41
*146 FILLER_10_53
*147 FILLER_10_65
*148 FILLER_10_77
*149 FILLER_10_83
*150 FILLER_10_85
*151 FILLER_10_97
*152 FILLER_11_105
*153 FILLER_11_111
*154 FILLER_11_113
*155 FILLER_11_125
*156 FILLER_11_137
*157 FILLER_11_149
*158 FILLER_11_161
*159 FILLER_11_167
*160 FILLER_11_169
*161 FILLER_11_181
*162 FILLER_11_193
*163 FILLER_11_20
*164 FILLER_11_205
*165 FILLER_11_217
*166 FILLER_11_223
*167 FILLER_11_225
*168 FILLER_11_237
*169 FILLER_11_249
*170 FILLER_11_261
*171 FILLER_11_273
*172 FILLER_11_279
*173 FILLER_11_281
*174 FILLER_11_293
*175 FILLER_11_3
*176 FILLER_11_32
*177 FILLER_11_44
*178 FILLER_11_57
*179 FILLER_11_69
*180 FILLER_11_8
*181 FILLER_11_81
*182 FILLER_11_93
*183 FILLER_12_109
*184 FILLER_12_121
*185 FILLER_12_133
*186 FILLER_12_139
*187 FILLER_12_141
*188 FILLER_12_153
*189 FILLER_12_16
*190 FILLER_12_165
*191 FILLER_12_177
*192 FILLER_12_189
*193 FILLER_12_195
*194 FILLER_12_197
*195 FILLER_12_209
*196 FILLER_12_221
*197 FILLER_12_233
*198 FILLER_12_245
*199 FILLER_12_251
*200 FILLER_12_253
*201 FILLER_12_265
*202 FILLER_12_277
*203 FILLER_12_289
*204 FILLER_12_29
*205 FILLER_12_297
*206 FILLER_12_3
*207 FILLER_12_41
*208 FILLER_12_53
*209 FILLER_12_65
*210 FILLER_12_77
*211 FILLER_12_83
*212 FILLER_12_85
*213 FILLER_12_97
*214 FILLER_13_105
*215 FILLER_13_111
*216 FILLER_13_113
*217 FILLER_13_125
*218 FILLER_13_137
*219 FILLER_13_149
*220 FILLER_13_161
*221 FILLER_13_167
*222 FILLER_13_169
*223 FILLER_13_17
*224 FILLER_13_181
*225 FILLER_13_193
*226 FILLER_13_205
*227 FILLER_13_217
*228 FILLER_13_223
*229 FILLER_13_225
*230 FILLER_13_237
*231 FILLER_13_249
*232 FILLER_13_261
*233 FILLER_13_273
*234 FILLER_13_279
*235 FILLER_13_281
*236 FILLER_13_293
*237 FILLER_13_3
*238 FILLER_13_34
*239 FILLER_13_46
*240 FILLER_13_54
*241 FILLER_13_57
*242 FILLER_13_69
*243 FILLER_13_81
*244 FILLER_13_9
*245 FILLER_13_93
*246 FILLER_14_109
*247 FILLER_14_121
*248 FILLER_14_133
*249 FILLER_14_139
*250 FILLER_14_141
*251 FILLER_14_153
*252 FILLER_14_165
*253 FILLER_14_177
*254 FILLER_14_189
*255 FILLER_14_195
*256 FILLER_14_197
*257 FILLER_14_209
*258 FILLER_14_221
*259 FILLER_14_233
*260 FILLER_14_245
*261 FILLER_14_251
*262 FILLER_14_253
*263 FILLER_14_26
*264 FILLER_14_265
*265 FILLER_14_277
*266 FILLER_14_289
*267 FILLER_14_29
*268 FILLER_14_297
*269 FILLER_14_3
*270 FILLER_14_41
*271 FILLER_14_53
*272 FILLER_14_65
*273 FILLER_14_77
*274 FILLER_14_83
*275 FILLER_14_85
*276 FILLER_14_9
*277 FILLER_14_97
*278 FILLER_15_105
*279 FILLER_15_111
*280 FILLER_15_113
*281 FILLER_15_125
*282 FILLER_15_137
*283 FILLER_15_14
*284 FILLER_15_149
*285 FILLER_15_161
*286 FILLER_15_167
*287 FILLER_15_169
*288 FILLER_15_18
*289 FILLER_15_181
*290 FILLER_15_193
*291 FILLER_15_205
*292 FILLER_15_217
*293 FILLER_15_223
*294 FILLER_15_225
*295 FILLER_15_237
*296 FILLER_15_249
*297 FILLER_15_261
*298 FILLER_15_273
*299 FILLER_15_279
*300 FILLER_15_281
*301 FILLER_15_293
*302 FILLER_15_3
*303 FILLER_15_35
*304 FILLER_15_47
*305 FILLER_15_55
*306 FILLER_15_57
*307 FILLER_15_69
*308 FILLER_15_81
*309 FILLER_15_93
*310 FILLER_16_109
*311 FILLER_16_121
*312 FILLER_16_133
*313 FILLER_16_139
*314 FILLER_16_141
*315 FILLER_16_153
*316 FILLER_16_16
*317 FILLER_16_165
*318 FILLER_16_177
*319 FILLER_16_189
*320 FILLER_16_195
*321 FILLER_16_197
*322 FILLER_16_209
*323 FILLER_16_221
*324 FILLER_16_23
*325 FILLER_16_233
*326 FILLER_16_245
*327 FILLER_16_251
*328 FILLER_16_253
*329 FILLER_16_265
*330 FILLER_16_27
*331 FILLER_16_277
*332 FILLER_16_289
*333 FILLER_16_29
*334 FILLER_16_297
*335 FILLER_16_3
*336 FILLER_16_41
*337 FILLER_16_53
*338 FILLER_16_65
*339 FILLER_16_77
*340 FILLER_16_83
*341 FILLER_16_85
*342 FILLER_16_9
*343 FILLER_16_97
*344 FILLER_17_105
*345 FILLER_17_111
*346 FILLER_17_113
*347 FILLER_17_125
*348 FILLER_17_137
*349 FILLER_17_149
*350 FILLER_17_161
*351 FILLER_17_167
*352 FILLER_17_169
*353 FILLER_17_181
*354 FILLER_17_193
*355 FILLER_17_205
*356 FILLER_17_217
*357 FILLER_17_223
*358 FILLER_17_225
*359 FILLER_17_237
*360 FILLER_17_249
*361 FILLER_17_261
*362 FILLER_17_273
*363 FILLER_17_279
*364 FILLER_17_281
*365 FILLER_17_293
*366 FILLER_17_3
*367 FILLER_17_36
*368 FILLER_17_48
*369 FILLER_17_57
*370 FILLER_17_69
*371 FILLER_17_8
*372 FILLER_17_81
*373 FILLER_17_93
*374 FILLER_18_109
*375 FILLER_18_121
*376 FILLER_18_133
*377 FILLER_18_139
*378 FILLER_18_141
*379 FILLER_18_15
*380 FILLER_18_153
*381 FILLER_18_165
*382 FILLER_18_177
*383 FILLER_18_189
*384 FILLER_18_195
*385 FILLER_18_197
*386 FILLER_18_209
*387 FILLER_18_221
*388 FILLER_18_233
*389 FILLER_18_245
*390 FILLER_18_251
*391 FILLER_18_253
*392 FILLER_18_265
*393 FILLER_18_27
*394 FILLER_18_277
*395 FILLER_18_289
*396 FILLER_18_29
*397 FILLER_18_297
*398 FILLER_18_3
*399 FILLER_18_41
*400 FILLER_18_53
*401 FILLER_18_65
*402 FILLER_18_77
*403 FILLER_18_8
*404 FILLER_18_83
*405 FILLER_18_85
*406 FILLER_18_97
*407 FILLER_19_105
*408 FILLER_19_111
*409 FILLER_19_113
*410 FILLER_19_125
*411 FILLER_19_137
*412 FILLER_19_149
*413 FILLER_19_161
*414 FILLER_19_167
*415 FILLER_19_169
*416 FILLER_19_181
*417 FILLER_19_193
*418 FILLER_19_205
*419 FILLER_19_217
*420 FILLER_19_223
*421 FILLER_19_225
*422 FILLER_19_237
*423 FILLER_19_249
*424 FILLER_19_261
*425 FILLER_19_273
*426 FILLER_19_279
*427 FILLER_19_281
*428 FILLER_19_293
*429 FILLER_19_3
*430 FILLER_19_36
*431 FILLER_19_48
*432 FILLER_19_57
*433 FILLER_19_69
*434 FILLER_19_8
*435 FILLER_19_81
*436 FILLER_19_93
*437 FILLER_1_105
*438 FILLER_1_111
*439 FILLER_1_113
*440 FILLER_1_125
*441 FILLER_1_137
*442 FILLER_1_149
*443 FILLER_1_161
*444 FILLER_1_167
*445 FILLER_1_169
*446 FILLER_1_181
*447 FILLER_1_193
*448 FILLER_1_205
*449 FILLER_1_217
*450 FILLER_1_223
*451 FILLER_1_225
*452 FILLER_1_237
*453 FILLER_1_249
*454 FILLER_1_261
*455 FILLER_1_273
*456 FILLER_1_279
*457 FILLER_1_28
*458 FILLER_1_281
*459 FILLER_1_293
*460 FILLER_1_3
*461 FILLER_1_48
*462 FILLER_1_57
*463 FILLER_1_69
*464 FILLER_1_7
*465 FILLER_1_81
*466 FILLER_1_93
*467 FILLER_20_109
*468 FILLER_20_121
*469 FILLER_20_133
*470 FILLER_20_139
*471 FILLER_20_141
*472 FILLER_20_153
*473 FILLER_20_165
*474 FILLER_20_177
*475 FILLER_20_189
*476 FILLER_20_195
*477 FILLER_20_197
*478 FILLER_20_20
*479 FILLER_20_209
*480 FILLER_20_221
*481 FILLER_20_233
*482 FILLER_20_245
*483 FILLER_20_251
*484 FILLER_20_253
*485 FILLER_20_265
*486 FILLER_20_277
*487 FILLER_20_289
*488 FILLER_20_29
*489 FILLER_20_297
*490 FILLER_20_3
*491 FILLER_20_41
*492 FILLER_20_53
*493 FILLER_20_65
*494 FILLER_20_77
*495 FILLER_20_8
*496 FILLER_20_83
*497 FILLER_20_85
*498 FILLER_20_97
*499 FILLER_21_105
*500 FILLER_21_111
*501 FILLER_21_113
*502 FILLER_21_125
*503 FILLER_21_137
*504 FILLER_21_14
*505 FILLER_21_149
*506 FILLER_21_161
*507 FILLER_21_167
*508 FILLER_21_169
*509 FILLER_21_181
*510 FILLER_21_193
*511 FILLER_21_205
*512 FILLER_21_217
*513 FILLER_21_223
*514 FILLER_21_225
*515 FILLER_21_237
*516 FILLER_21_249
*517 FILLER_21_261
*518 FILLER_21_273
*519 FILLER_21_279
*520 FILLER_21_281
*521 FILLER_21_293
*522 FILLER_21_3
*523 FILLER_21_31
*524 FILLER_21_51
*525 FILLER_21_55
*526 FILLER_21_57
*527 FILLER_21_69
*528 FILLER_21_8
*529 FILLER_21_81
*530 FILLER_21_93
*531 FILLER_22_109
*532 FILLER_22_121
*533 FILLER_22_133
*534 FILLER_22_139
*535 FILLER_22_14
*536 FILLER_22_141
*537 FILLER_22_153
*538 FILLER_22_165
*539 FILLER_22_177
*540 FILLER_22_189
*541 FILLER_22_195
*542 FILLER_22_197
*543 FILLER_22_209
*544 FILLER_22_221
*545 FILLER_22_233
*546 FILLER_22_245
*547 FILLER_22_251
*548 FILLER_22_253
*549 FILLER_22_26
*550 FILLER_22_265
*551 FILLER_22_277
*552 FILLER_22_289
*553 FILLER_22_29
*554 FILLER_22_297
*555 FILLER_22_3
*556 FILLER_22_41
*557 FILLER_22_53
*558 FILLER_22_65
*559 FILLER_22_77
*560 FILLER_22_83
*561 FILLER_22_85
*562 FILLER_22_97
*563 FILLER_23_105
*564 FILLER_23_111
*565 FILLER_23_113
*566 FILLER_23_125
*567 FILLER_23_13
*568 FILLER_23_137
*569 FILLER_23_149
*570 FILLER_23_161
*571 FILLER_23_167
*572 FILLER_23_169
*573 FILLER_23_181
*574 FILLER_23_193
*575 FILLER_23_205
*576 FILLER_23_217
*577 FILLER_23_223
*578 FILLER_23_225
*579 FILLER_23_237
*580 FILLER_23_249
*581 FILLER_23_261
*582 FILLER_23_273
*583 FILLER_23_279
*584 FILLER_23_281
*585 FILLER_23_293
*586 FILLER_23_3
*587 FILLER_23_37
*588 FILLER_23_49
*589 FILLER_23_55
*590 FILLER_23_57
*591 FILLER_23_69
*592 FILLER_23_81
*593 FILLER_23_9
*594 FILLER_23_93
*595 FILLER_24_109
*596 FILLER_24_121
*597 FILLER_24_133
*598 FILLER_24_139
*599 FILLER_24_141
*600 FILLER_24_153
*601 FILLER_24_165
*602 FILLER_24_17
*603 FILLER_24_177
*604 FILLER_24_189
*605 FILLER_24_195
*606 FILLER_24_197
*607 FILLER_24_209
*608 FILLER_24_221
*609 FILLER_24_233
*610 FILLER_24_24
*611 FILLER_24_245
*612 FILLER_24_251
*613 FILLER_24_253
*614 FILLER_24_265
*615 FILLER_24_277
*616 FILLER_24_289
*617 FILLER_24_29
*618 FILLER_24_297
*619 FILLER_24_3
*620 FILLER_24_41
*621 FILLER_24_53
*622 FILLER_24_65
*623 FILLER_24_7
*624 FILLER_24_77
*625 FILLER_24_83
*626 FILLER_24_85
*627 FILLER_24_97
*628 FILLER_25_105
*629 FILLER_25_111
*630 FILLER_25_113
*631 FILLER_25_125
*632 FILLER_25_137
*633 FILLER_25_149
*634 FILLER_25_16
*635 FILLER_25_161
*636 FILLER_25_167
*637 FILLER_25_169
*638 FILLER_25_181
*639 FILLER_25_193
*640 FILLER_25_205
*641 FILLER_25_217
*642 FILLER_25_223
*643 FILLER_25_225
*644 FILLER_25_237
*645 FILLER_25_24
*646 FILLER_25_249
*647 FILLER_25_261
*648 FILLER_25_273
*649 FILLER_25_279
*650 FILLER_25_281
*651 FILLER_25_293
*652 FILLER_25_3
*653 FILLER_25_43
*654 FILLER_25_55
*655 FILLER_25_57
*656 FILLER_25_69
*657 FILLER_25_81
*658 FILLER_25_9
*659 FILLER_25_93
*660 FILLER_26_109
*661 FILLER_26_121
*662 FILLER_26_133
*663 FILLER_26_139
*664 FILLER_26_141
*665 FILLER_26_153
*666 FILLER_26_16
*667 FILLER_26_165
*668 FILLER_26_177
*669 FILLER_26_189
*670 FILLER_26_195
*671 FILLER_26_197
*672 FILLER_26_209
*673 FILLER_26_21
*674 FILLER_26_221
*675 FILLER_26_233
*676 FILLER_26_245
*677 FILLER_26_251
*678 FILLER_26_253
*679 FILLER_26_265
*680 FILLER_26_27
*681 FILLER_26_277
*682 FILLER_26_289
*683 FILLER_26_29
*684 FILLER_26_297
*685 FILLER_26_3
*686 FILLER_26_47
*687 FILLER_26_59
*688 FILLER_26_71
*689 FILLER_26_8
*690 FILLER_26_83
*691 FILLER_26_85
*692 FILLER_26_97
*693 FILLER_27_105
*694 FILLER_27_111
*695 FILLER_27_113
*696 FILLER_27_125
*697 FILLER_27_137
*698 FILLER_27_149
*699 FILLER_27_15
*700 FILLER_27_161
*701 FILLER_27_167
*702 FILLER_27_169
*703 FILLER_27_181
*704 FILLER_27_193
*705 FILLER_27_205
*706 FILLER_27_21
*707 FILLER_27_217
*708 FILLER_27_223
*709 FILLER_27_225
*710 FILLER_27_237
*711 FILLER_27_249
*712 FILLER_27_261
*713 FILLER_27_273
*714 FILLER_27_279
*715 FILLER_27_281
*716 FILLER_27_293
*717 FILLER_27_3
*718 FILLER_27_38
*719 FILLER_27_50
*720 FILLER_27_57
*721 FILLER_27_69
*722 FILLER_27_81
*723 FILLER_27_93
*724 FILLER_28_109
*725 FILLER_28_121
*726 FILLER_28_133
*727 FILLER_28_139
*728 FILLER_28_141
*729 FILLER_28_15
*730 FILLER_28_153
*731 FILLER_28_165
*732 FILLER_28_177
*733 FILLER_28_189
*734 FILLER_28_195
*735 FILLER_28_197
*736 FILLER_28_209
*737 FILLER_28_221
*738 FILLER_28_233
*739 FILLER_28_245
*740 FILLER_28_251
*741 FILLER_28_253
*742 FILLER_28_265
*743 FILLER_28_27
*744 FILLER_28_277
*745 FILLER_28_289
*746 FILLER_28_29
*747 FILLER_28_297
*748 FILLER_28_3
*749 FILLER_28_41
*750 FILLER_28_53
*751 FILLER_28_65
*752 FILLER_28_77
*753 FILLER_28_8
*754 FILLER_28_83
*755 FILLER_28_85
*756 FILLER_28_97
*757 FILLER_29_105
*758 FILLER_29_11
*759 FILLER_29_111
*760 FILLER_29_113
*761 FILLER_29_125
*762 FILLER_29_137
*763 FILLER_29_149
*764 FILLER_29_161
*765 FILLER_29_167
*766 FILLER_29_169
*767 FILLER_29_17
*768 FILLER_29_181
*769 FILLER_29_193
*770 FILLER_29_205
*771 FILLER_29_217
*772 FILLER_29_223
*773 FILLER_29_225
*774 FILLER_29_237
*775 FILLER_29_24
*776 FILLER_29_249
*777 FILLER_29_261
*778 FILLER_29_273
*779 FILLER_29_279
*780 FILLER_29_281
*781 FILLER_29_293
*782 FILLER_29_3
*783 FILLER_29_36
*784 FILLER_29_48
*785 FILLER_29_57
*786 FILLER_29_69
*787 FILLER_29_81
*788 FILLER_29_93
*789 FILLER_2_109
*790 FILLER_2_121
*791 FILLER_2_133
*792 FILLER_2_139
*793 FILLER_2_141
*794 FILLER_2_153
*795 FILLER_2_165
*796 FILLER_2_177
*797 FILLER_2_189
*798 FILLER_2_195
*799 FILLER_2_197
*800 FILLER_2_209
*801 FILLER_2_221
*802 FILLER_2_23
*803 FILLER_2_233
*804 FILLER_2_245
*805 FILLER_2_251
*806 FILLER_2_253
*807 FILLER_2_265
*808 FILLER_2_27
*809 FILLER_2_277
*810 FILLER_2_289
*811 FILLER_2_29
*812 FILLER_2_297
*813 FILLER_2_3
*814 FILLER_2_41
*815 FILLER_2_53
*816 FILLER_2_65
*817 FILLER_2_77
*818 FILLER_2_83
*819 FILLER_2_85
*820 FILLER_2_97
*821 FILLER_30_109
*822 FILLER_30_121
*823 FILLER_30_133
*824 FILLER_30_139
*825 FILLER_30_141
*826 FILLER_30_15
*827 FILLER_30_153
*828 FILLER_30_165
*829 FILLER_30_177
*830 FILLER_30_189
*831 FILLER_30_195
*832 FILLER_30_197
*833 FILLER_30_209
*834 FILLER_30_22
*835 FILLER_30_221
*836 FILLER_30_233
*837 FILLER_30_245
*838 FILLER_30_251
*839 FILLER_30_253
*840 FILLER_30_265
*841 FILLER_30_277
*842 FILLER_30_289
*843 FILLER_30_29
*844 FILLER_30_297
*845 FILLER_30_3
*846 FILLER_30_41
*847 FILLER_30_53
*848 FILLER_30_65
*849 FILLER_30_77
*850 FILLER_30_83
*851 FILLER_30_85
*852 FILLER_30_97
*853 FILLER_31_105
*854 FILLER_31_111
*855 FILLER_31_113
*856 FILLER_31_125
*857 FILLER_31_137
*858 FILLER_31_149
*859 FILLER_31_161
*860 FILLER_31_167
*861 FILLER_31_169
*862 FILLER_31_181
*863 FILLER_31_193
*864 FILLER_31_205
*865 FILLER_31_21
*866 FILLER_31_217
*867 FILLER_31_223
*868 FILLER_31_225
*869 FILLER_31_237
*870 FILLER_31_249
*871 FILLER_31_261
*872 FILLER_31_273
*873 FILLER_31_279
*874 FILLER_31_281
*875 FILLER_31_29
*876 FILLER_31_293
*877 FILLER_31_3
*878 FILLER_31_41
*879 FILLER_31_53
*880 FILLER_31_57
*881 FILLER_31_69
*882 FILLER_31_81
*883 FILLER_31_9
*884 FILLER_31_93
*885 FILLER_32_10
*886 FILLER_32_109
*887 FILLER_32_121
*888 FILLER_32_133
*889 FILLER_32_139
*890 FILLER_32_141
*891 FILLER_32_153
*892 FILLER_32_165
*893 FILLER_32_177
*894 FILLER_32_189
*895 FILLER_32_195
*896 FILLER_32_197
*897 FILLER_32_209
*898 FILLER_32_21
*899 FILLER_32_221
*900 FILLER_32_233
*901 FILLER_32_245
*902 FILLER_32_251
*903 FILLER_32_253
*904 FILLER_32_265
*905 FILLER_32_27
*906 FILLER_32_277
*907 FILLER_32_289
*908 FILLER_32_29
*909 FILLER_32_297
*910 FILLER_32_3
*911 FILLER_32_34
*912 FILLER_32_46
*913 FILLER_32_58
*914 FILLER_32_70
*915 FILLER_32_82
*916 FILLER_32_85
*917 FILLER_32_97
*918 FILLER_33_105
*919 FILLER_33_111
*920 FILLER_33_113
*921 FILLER_33_125
*922 FILLER_33_137
*923 FILLER_33_149
*924 FILLER_33_15
*925 FILLER_33_161
*926 FILLER_33_167
*927 FILLER_33_169
*928 FILLER_33_181
*929 FILLER_33_193
*930 FILLER_33_205
*931 FILLER_33_217
*932 FILLER_33_223
*933 FILLER_33_225
*934 FILLER_33_23
*935 FILLER_33_237
*936 FILLER_33_249
*937 FILLER_33_261
*938 FILLER_33_273
*939 FILLER_33_279
*940 FILLER_33_281
*941 FILLER_33_293
*942 FILLER_33_3
*943 FILLER_33_35
*944 FILLER_33_47
*945 FILLER_33_55
*946 FILLER_33_57
*947 FILLER_33_69
*948 FILLER_33_81
*949 FILLER_33_93
*950 FILLER_34_10
*951 FILLER_34_109
*952 FILLER_34_121
*953 FILLER_34_133
*954 FILLER_34_139
*955 FILLER_34_141
*956 FILLER_34_153
*957 FILLER_34_165
*958 FILLER_34_177
*959 FILLER_34_189
*960 FILLER_34_19
*961 FILLER_34_195
*962 FILLER_34_197
*963 FILLER_34_209
*964 FILLER_34_221
*965 FILLER_34_233
*966 FILLER_34_245
*967 FILLER_34_251
*968 FILLER_34_253
*969 FILLER_34_26
*970 FILLER_34_265
*971 FILLER_34_277
*972 FILLER_34_289
*973 FILLER_34_29
*974 FILLER_34_297
*975 FILLER_34_3
*976 FILLER_34_41
*977 FILLER_34_53
*978 FILLER_34_65
*979 FILLER_34_77
*980 FILLER_34_83
*981 FILLER_34_85
*982 FILLER_34_97
*983 FILLER_35_105
*984 FILLER_35_111
*985 FILLER_35_113
*986 FILLER_35_125
*987 FILLER_35_137
*988 FILLER_35_149
*989 FILLER_35_161
*990 FILLER_35_167
*991 FILLER_35_169
*992 FILLER_35_181
*993 FILLER_35_193
*994 FILLER_35_20
*995 FILLER_35_205
*996 FILLER_35_217
*997 FILLER_35_223
*998 FILLER_35_225
*999 FILLER_35_237
*1000 FILLER_35_249
*1001 FILLER_35_261
*1002 FILLER_35_273
*1003 FILLER_35_279
*1004 FILLER_35_281
*1005 FILLER_35_29
*1006 FILLER_35_293
*1007 FILLER_35_3
*1008 FILLER_35_39
*1009 FILLER_35_51
*1010 FILLER_35_55
*1011 FILLER_35_57
*1012 FILLER_35_69
*1013 FILLER_35_81
*1014 FILLER_35_9
*1015 FILLER_35_93
*1016 FILLER_36_109
*1017 FILLER_36_11
*1018 FILLER_36_121
*1019 FILLER_36_133
*1020 FILLER_36_139
*1021 FILLER_36_141
*1022 FILLER_36_153
*1023 FILLER_36_165
*1024 FILLER_36_177
*1025 FILLER_36_189
*1026 FILLER_36_195
*1027 FILLER_36_197
*1028 FILLER_36_209
*1029 FILLER_36_21
*1030 FILLER_36_221
*1031 FILLER_36_233
*1032 FILLER_36_245
*1033 FILLER_36_251
*1034 FILLER_36_253
*1035 FILLER_36_265
*1036 FILLER_36_27
*1037 FILLER_36_277
*1038 FILLER_36_289
*1039 FILLER_36_29
*1040 FILLER_36_297
*1041 FILLER_36_3
*1042 FILLER_36_35
*1043 FILLER_36_44
*1044 FILLER_36_56
*1045 FILLER_36_68
*1046 FILLER_36_80
*1047 FILLER_36_85
*1048 FILLER_36_97
*1049 FILLER_37_10
*1050 FILLER_37_105
*1051 FILLER_37_111
*1052 FILLER_37_113
*1053 FILLER_37_125
*1054 FILLER_37_137
*1055 FILLER_37_149
*1056 FILLER_37_161
*1057 FILLER_37_167
*1058 FILLER_37_169
*1059 FILLER_37_181
*1060 FILLER_37_193
*1061 FILLER_37_205
*1062 FILLER_37_217
*1063 FILLER_37_22
*1064 FILLER_37_223
*1065 FILLER_37_225
*1066 FILLER_37_237
*1067 FILLER_37_249
*1068 FILLER_37_261
*1069 FILLER_37_273
*1070 FILLER_37_279
*1071 FILLER_37_281
*1072 FILLER_37_293
*1073 FILLER_37_3
*1074 FILLER_37_30
*1075 FILLER_37_37
*1076 FILLER_37_49
*1077 FILLER_37_55
*1078 FILLER_37_57
*1079 FILLER_37_69
*1080 FILLER_37_81
*1081 FILLER_37_93
*1082 FILLER_38_109
*1083 FILLER_38_12
*1084 FILLER_38_121
*1085 FILLER_38_133
*1086 FILLER_38_139
*1087 FILLER_38_141
*1088 FILLER_38_153
*1089 FILLER_38_165
*1090 FILLER_38_177
*1091 FILLER_38_189
*1092 FILLER_38_195
*1093 FILLER_38_197
*1094 FILLER_38_209
*1095 FILLER_38_21
*1096 FILLER_38_221
*1097 FILLER_38_233
*1098 FILLER_38_245
*1099 FILLER_38_251
*1100 FILLER_38_253
*1101 FILLER_38_265
*1102 FILLER_38_27
*1103 FILLER_38_277
*1104 FILLER_38_289
*1105 FILLER_38_29
*1106 FILLER_38_297
*1107 FILLER_38_3
*1108 FILLER_38_41
*1109 FILLER_38_53
*1110 FILLER_38_65
*1111 FILLER_38_77
*1112 FILLER_38_83
*1113 FILLER_38_85
*1114 FILLER_38_97
*1115 FILLER_39_105
*1116 FILLER_39_111
*1117 FILLER_39_113
*1118 FILLER_39_125
*1119 FILLER_39_137
*1120 FILLER_39_149
*1121 FILLER_39_15
*1122 FILLER_39_161
*1123 FILLER_39_167
*1124 FILLER_39_169
*1125 FILLER_39_181
*1126 FILLER_39_193
*1127 FILLER_39_205
*1128 FILLER_39_217
*1129 FILLER_39_223
*1130 FILLER_39_225
*1131 FILLER_39_237
*1132 FILLER_39_249
*1133 FILLER_39_25
*1134 FILLER_39_261
*1135 FILLER_39_273
*1136 FILLER_39_279
*1137 FILLER_39_281
*1138 FILLER_39_293
*1139 FILLER_39_3
*1140 FILLER_39_37
*1141 FILLER_39_49
*1142 FILLER_39_55
*1143 FILLER_39_57
*1144 FILLER_39_69
*1145 FILLER_39_81
*1146 FILLER_39_93
*1147 FILLER_3_105
*1148 FILLER_3_111
*1149 FILLER_3_113
*1150 FILLER_3_125
*1151 FILLER_3_137
*1152 FILLER_3_149
*1153 FILLER_3_161
*1154 FILLER_3_167
*1155 FILLER_3_169
*1156 FILLER_3_181
*1157 FILLER_3_193
*1158 FILLER_3_205
*1159 FILLER_3_217
*1160 FILLER_3_223
*1161 FILLER_3_225
*1162 FILLER_3_237
*1163 FILLER_3_249
*1164 FILLER_3_25
*1165 FILLER_3_261
*1166 FILLER_3_273
*1167 FILLER_3_279
*1168 FILLER_3_281
*1169 FILLER_3_293
*1170 FILLER_3_3
*1171 FILLER_3_37
*1172 FILLER_3_49
*1173 FILLER_3_55
*1174 FILLER_3_57
*1175 FILLER_3_69
*1176 FILLER_3_81
*1177 FILLER_3_93
*1178 FILLER_40_109
*1179 FILLER_40_121
*1180 FILLER_40_13
*1181 FILLER_40_133
*1182 FILLER_40_139
*1183 FILLER_40_141
*1184 FILLER_40_153
*1185 FILLER_40_165
*1186 FILLER_40_177
*1187 FILLER_40_189
*1188 FILLER_40_195
*1189 FILLER_40_197
*1190 FILLER_40_209
*1191 FILLER_40_221
*1192 FILLER_40_233
*1193 FILLER_40_245
*1194 FILLER_40_25
*1195 FILLER_40_251
*1196 FILLER_40_253
*1197 FILLER_40_265
*1198 FILLER_40_277
*1199 FILLER_40_289
*1200 FILLER_40_29
*1201 FILLER_40_297
*1202 FILLER_40_3
*1203 FILLER_40_41
*1204 FILLER_40_53
*1205 FILLER_40_65
*1206 FILLER_40_77
*1207 FILLER_40_83
*1208 FILLER_40_85
*1209 FILLER_40_97
*1210 FILLER_41_105
*1211 FILLER_41_111
*1212 FILLER_41_113
*1213 FILLER_41_125
*1214 FILLER_41_137
*1215 FILLER_41_149
*1216 FILLER_41_15
*1217 FILLER_41_161
*1218 FILLER_41_167
*1219 FILLER_41_169
*1220 FILLER_41_181
*1221 FILLER_41_193
*1222 FILLER_41_205
*1223 FILLER_41_217
*1224 FILLER_41_22
*1225 FILLER_41_223
*1226 FILLER_41_225
*1227 FILLER_41_237
*1228 FILLER_41_249
*1229 FILLER_41_261
*1230 FILLER_41_273
*1231 FILLER_41_279
*1232 FILLER_41_281
*1233 FILLER_41_293
*1234 FILLER_41_3
*1235 FILLER_41_30
*1236 FILLER_41_42
*1237 FILLER_41_54
*1238 FILLER_41_57
*1239 FILLER_41_69
*1240 FILLER_41_81
*1241 FILLER_41_93
*1242 FILLER_42_109
*1243 FILLER_42_121
*1244 FILLER_42_133
*1245 FILLER_42_139
*1246 FILLER_42_141
*1247 FILLER_42_153
*1248 FILLER_42_165
*1249 FILLER_42_177
*1250 FILLER_42_189
*1251 FILLER_42_195
*1252 FILLER_42_197
*1253 FILLER_42_209
*1254 FILLER_42_21
*1255 FILLER_42_221
*1256 FILLER_42_233
*1257 FILLER_42_245
*1258 FILLER_42_251
*1259 FILLER_42_253
*1260 FILLER_42_265
*1261 FILLER_42_27
*1262 FILLER_42_277
*1263 FILLER_42_289
*1264 FILLER_42_29
*1265 FILLER_42_297
*1266 FILLER_42_3
*1267 FILLER_42_41
*1268 FILLER_42_53
*1269 FILLER_42_65
*1270 FILLER_42_77
*1271 FILLER_42_83
*1272 FILLER_42_85
*1273 FILLER_42_9
*1274 FILLER_42_97
*1275 FILLER_43_105
*1276 FILLER_43_111
*1277 FILLER_43_113
*1278 FILLER_43_125
*1279 FILLER_43_137
*1280 FILLER_43_149
*1281 FILLER_43_15
*1282 FILLER_43_161
*1283 FILLER_43_167
*1284 FILLER_43_169
*1285 FILLER_43_181
*1286 FILLER_43_193
*1287 FILLER_43_205
*1288 FILLER_43_217
*1289 FILLER_43_223
*1290 FILLER_43_225
*1291 FILLER_43_237
*1292 FILLER_43_249
*1293 FILLER_43_261
*1294 FILLER_43_27
*1295 FILLER_43_273
*1296 FILLER_43_279
*1297 FILLER_43_281
*1298 FILLER_43_293
*1299 FILLER_43_3
*1300 FILLER_43_39
*1301 FILLER_43_51
*1302 FILLER_43_55
*1303 FILLER_43_57
*1304 FILLER_43_69
*1305 FILLER_43_81
*1306 FILLER_43_93
*1307 FILLER_44_109
*1308 FILLER_44_121
*1309 FILLER_44_133
*1310 FILLER_44_139
*1311 FILLER_44_141
*1312 FILLER_44_15
*1313 FILLER_44_153
*1314 FILLER_44_165
*1315 FILLER_44_177
*1316 FILLER_44_189
*1317 FILLER_44_195
*1318 FILLER_44_197
*1319 FILLER_44_209
*1320 FILLER_44_221
*1321 FILLER_44_233
*1322 FILLER_44_245
*1323 FILLER_44_251
*1324 FILLER_44_253
*1325 FILLER_44_265
*1326 FILLER_44_27
*1327 FILLER_44_277
*1328 FILLER_44_289
*1329 FILLER_44_29
*1330 FILLER_44_297
*1331 FILLER_44_3
*1332 FILLER_44_41
*1333 FILLER_44_53
*1334 FILLER_44_65
*1335 FILLER_44_77
*1336 FILLER_44_83
*1337 FILLER_44_85
*1338 FILLER_44_97
*1339 FILLER_45_10
*1340 FILLER_45_105
*1341 FILLER_45_111
*1342 FILLER_45_113
*1343 FILLER_45_125
*1344 FILLER_45_137
*1345 FILLER_45_149
*1346 FILLER_45_161
*1347 FILLER_45_167
*1348 FILLER_45_169
*1349 FILLER_45_181
*1350 FILLER_45_193
*1351 FILLER_45_205
*1352 FILLER_45_217
*1353 FILLER_45_22
*1354 FILLER_45_223
*1355 FILLER_45_225
*1356 FILLER_45_237
*1357 FILLER_45_249
*1358 FILLER_45_261
*1359 FILLER_45_273
*1360 FILLER_45_279
*1361 FILLER_45_281
*1362 FILLER_45_293
*1363 FILLER_45_3
*1364 FILLER_45_34
*1365 FILLER_45_46
*1366 FILLER_45_54
*1367 FILLER_45_57
*1368 FILLER_45_69
*1369 FILLER_45_81
*1370 FILLER_45_93
*1371 FILLER_46_109
*1372 FILLER_46_11
*1373 FILLER_46_121
*1374 FILLER_46_133
*1375 FILLER_46_139
*1376 FILLER_46_141
*1377 FILLER_46_153
*1378 FILLER_46_165
*1379 FILLER_46_177
*1380 FILLER_46_189
*1381 FILLER_46_195
*1382 FILLER_46_197
*1383 FILLER_46_209
*1384 FILLER_46_221
*1385 FILLER_46_23
*1386 FILLER_46_233
*1387 FILLER_46_245
*1388 FILLER_46_251
*1389 FILLER_46_253
*1390 FILLER_46_265
*1391 FILLER_46_27
*1392 FILLER_46_277
*1393 FILLER_46_289
*1394 FILLER_46_29
*1395 FILLER_46_297
*1396 FILLER_46_3
*1397 FILLER_46_41
*1398 FILLER_46_53
*1399 FILLER_46_65
*1400 FILLER_46_77
*1401 FILLER_46_83
*1402 FILLER_46_85
*1403 FILLER_46_97
*1404 FILLER_47_105
*1405 FILLER_47_111
*1406 FILLER_47_113
*1407 FILLER_47_12
*1408 FILLER_47_125
*1409 FILLER_47_137
*1410 FILLER_47_149
*1411 FILLER_47_161
*1412 FILLER_47_167
*1413 FILLER_47_169
*1414 FILLER_47_181
*1415 FILLER_47_193
*1416 FILLER_47_205
*1417 FILLER_47_217
*1418 FILLER_47_223
*1419 FILLER_47_225
*1420 FILLER_47_237
*1421 FILLER_47_24
*1422 FILLER_47_249
*1423 FILLER_47_261
*1424 FILLER_47_273
*1425 FILLER_47_279
*1426 FILLER_47_281
*1427 FILLER_47_293
*1428 FILLER_47_3
*1429 FILLER_47_36
*1430 FILLER_47_48
*1431 FILLER_47_57
*1432 FILLER_47_69
*1433 FILLER_47_7
*1434 FILLER_47_81
*1435 FILLER_47_93
*1436 FILLER_48_109
*1437 FILLER_48_121
*1438 FILLER_48_133
*1439 FILLER_48_139
*1440 FILLER_48_141
*1441 FILLER_48_15
*1442 FILLER_48_153
*1443 FILLER_48_165
*1444 FILLER_48_177
*1445 FILLER_48_189
*1446 FILLER_48_195
*1447 FILLER_48_197
*1448 FILLER_48_209
*1449 FILLER_48_221
*1450 FILLER_48_233
*1451 FILLER_48_245
*1452 FILLER_48_251
*1453 FILLER_48_253
*1454 FILLER_48_265
*1455 FILLER_48_27
*1456 FILLER_48_277
*1457 FILLER_48_289
*1458 FILLER_48_29
*1459 FILLER_48_297
*1460 FILLER_48_3
*1461 FILLER_48_41
*1462 FILLER_48_53
*1463 FILLER_48_65
*1464 FILLER_48_77
*1465 FILLER_48_83
*1466 FILLER_48_85
*1467 FILLER_48_97
*1468 FILLER_49_105
*1469 FILLER_49_111
*1470 FILLER_49_113
*1471 FILLER_49_125
*1472 FILLER_49_137
*1473 FILLER_49_149
*1474 FILLER_49_15
*1475 FILLER_49_161
*1476 FILLER_49_167
*1477 FILLER_49_169
*1478 FILLER_49_181
*1479 FILLER_49_193
*1480 FILLER_49_205
*1481 FILLER_49_217
*1482 FILLER_49_223
*1483 FILLER_49_225
*1484 FILLER_49_237
*1485 FILLER_49_249
*1486 FILLER_49_261
*1487 FILLER_49_27
*1488 FILLER_49_273
*1489 FILLER_49_279
*1490 FILLER_49_281
*1491 FILLER_49_293
*1492 FILLER_49_3
*1493 FILLER_49_39
*1494 FILLER_49_51
*1495 FILLER_49_55
*1496 FILLER_49_57
*1497 FILLER_49_69
*1498 FILLER_49_81
*1499 FILLER_49_93
*1500 FILLER_4_109
*1501 FILLER_4_121
*1502 FILLER_4_133
*1503 FILLER_4_139
*1504 FILLER_4_141
*1505 FILLER_4_153
*1506 FILLER_4_165
*1507 FILLER_4_177
*1508 FILLER_4_189
*1509 FILLER_4_195
*1510 FILLER_4_197
*1511 FILLER_4_20
*1512 FILLER_4_209
*1513 FILLER_4_221
*1514 FILLER_4_233
*1515 FILLER_4_245
*1516 FILLER_4_251
*1517 FILLER_4_253
*1518 FILLER_4_265
*1519 FILLER_4_277
*1520 FILLER_4_289
*1521 FILLER_4_29
*1522 FILLER_4_297
*1523 FILLER_4_3
*1524 FILLER_4_41
*1525 FILLER_4_53
*1526 FILLER_4_65
*1527 FILLER_4_77
*1528 FILLER_4_8
*1529 FILLER_4_83
*1530 FILLER_4_85
*1531 FILLER_4_97
*1532 FILLER_50_109
*1533 FILLER_50_121
*1534 FILLER_50_133
*1535 FILLER_50_139
*1536 FILLER_50_141
*1537 FILLER_50_15
*1538 FILLER_50_153
*1539 FILLER_50_165
*1540 FILLER_50_177
*1541 FILLER_50_189
*1542 FILLER_50_195
*1543 FILLER_50_197
*1544 FILLER_50_209
*1545 FILLER_50_221
*1546 FILLER_50_233
*1547 FILLER_50_245
*1548 FILLER_50_251
*1549 FILLER_50_253
*1550 FILLER_50_265
*1551 FILLER_50_27
*1552 FILLER_50_277
*1553 FILLER_50_289
*1554 FILLER_50_29
*1555 FILLER_50_297
*1556 FILLER_50_3
*1557 FILLER_50_41
*1558 FILLER_50_53
*1559 FILLER_50_65
*1560 FILLER_50_77
*1561 FILLER_50_83
*1562 FILLER_50_85
*1563 FILLER_50_97
*1564 FILLER_51_105
*1565 FILLER_51_111
*1566 FILLER_51_113
*1567 FILLER_51_125
*1568 FILLER_51_137
*1569 FILLER_51_149
*1570 FILLER_51_15
*1571 FILLER_51_161
*1572 FILLER_51_167
*1573 FILLER_51_169
*1574 FILLER_51_181
*1575 FILLER_51_193
*1576 FILLER_51_205
*1577 FILLER_51_217
*1578 FILLER_51_223
*1579 FILLER_51_225
*1580 FILLER_51_237
*1581 FILLER_51_249
*1582 FILLER_51_261
*1583 FILLER_51_27
*1584 FILLER_51_273
*1585 FILLER_51_279
*1586 FILLER_51_281
*1587 FILLER_51_293
*1588 FILLER_51_3
*1589 FILLER_51_39
*1590 FILLER_51_51
*1591 FILLER_51_55
*1592 FILLER_51_57
*1593 FILLER_51_69
*1594 FILLER_51_81
*1595 FILLER_51_93