*SPEF "ieee 1481-1999"
*DESIGN "user_module_361728681519813633"
*DATE "11:11:11 Fri 11 11, 1111"
*VENDOR "OpenRCX"
*PROGRAM "Parallel Extraction"
*VERSION "1.0"
*DESIGN_FLOW "NAME_SCOPE LOCAL" "PIN_CAP NONE"
*DIVIDER /
*DELIMITER :
*BUS_DELIMITER []
*T_UNIT 1 NS
*C_UNIT 1 PF
*R_UNIT 1 OHM
*L_UNIT 1 HENRY

*NAME_MAP
*1 io_in[0]
*2 io_in[1]
*3 io_in[2]
*4 io_in[3]
*5 io_in[4]
*6 io_in[5]
*7 io_in[6]
*8 io_in[7]
*9 io_out[0]
*10 io_out[1]
*11 io_out[2]
*12 io_out[3]
*13 io_out[4]
*14 io_out[5]
*15 io_out[6]
*16 io_out[7]
*19 _000_
*20 _001_
*21 _002_
*22 _003_
*23 _004_
*24 _005_
*25 _006_
*26 _007_
*27 _008_
*28 _009_
*29 _010_
*30 _011_
*31 _012_
*32 _013_
*33 _014_
*34 _015_
*35 _016_
*36 _017_
*37 _018_
*38 _019_
*39 _020_
*40 _021_
*41 _022_
*42 _023_
*43 _024_
*44 _025_
*45 _026_
*46 _027_
*47 _028_
*48 _029_
*49 _030_
*50 _031_
*51 _032_
*52 _033_
*53 _034_
*54 _035_
*55 _036_
*56 _037_
*57 _038_
*58 _039_
*59 _040_
*60 _041_
*61 _042_
*62 _043_
*63 _044_
*64 _045_
*65 _046_
*66 _047_
*67 _048_
*68 _049_
*69 _050_
*70 _051_
*71 _052_
*72 _053_
*73 _054_
*74 _055_
*75 _056_
*76 _057_
*77 _058_
*78 _059_
*79 _060_
*80 _061_
*81 _062_
*82 _063_
*83 _064_
*84 _065_
*85 _066_
*86 _067_
*87 _068_
*88 _069_
*89 _070_
*90 _071_
*91 _072_
*92 _073_
*93 _074_
*94 _075_
*95 _076_
*96 _077_
*97 _078_
*98 _079_
*99 _080_
*100 _081_
*101 _082_
*102 _083_
*103 _084_
*104 _085_
*105 _086_
*106 _087_
*107 _088_
*108 _089_
*109 _090_
*110 _091_
*111 _092_
*112 _093_
*113 _094_
*114 _095_
*115 _096_
*116 _097_
*117 _098_
*118 _099_
*119 _100_
*120 _101_
*121 _102_
*122 _103_
*123 _104_
*124 _105_
*125 _106_
*126 _107_
*127 _108_
*128 _109_
*129 _110_
*130 _111_
*131 _112_
*132 _113_
*133 and10\.b
*134 and11\.b
*135 and12\.b
*136 and13\.b
*137 and14\.b
*138 and15\.b
*139 and16\.b
*140 and17\.b
*141 and18\.b
*142 and19\.b
*143 and20\.b
*144 and21\.b
*145 and22\.b
*146 and24\.a
*147 and25\.a
*148 and26\.a
*149 and27\.a
*150 and28\.a
*151 and29\.a
*152 and30\.a
*153 and31\.a
*154 and32\.a
*155 and33\.a
*156 and34\.a
*157 and35\.a
*158 and36\.a
*159 and37\.a
*160 and52\.a
*161 and52\.out
*162 and8\.b
*163 and9\.b
*164 clknet_0_io_in[0]
*165 clknet_2_0__leaf_io_in[0]
*166 clknet_2_1__leaf_io_in[0]
*167 clknet_2_2__leaf_io_in[0]
*168 clknet_2_3__leaf_io_in[0]
*169 flipflop1\.d
*170 flipflop1\.q
*171 flipflop10\.d
*172 flipflop11\.d
*173 flipflop12\.d
*174 flipflop13\.d
*175 flipflop14\.d
*176 flipflop15\.d
*177 flipflop16\.d
*178 flipflop17\.d
*179 flipflop18\.d
*180 flipflop19\.d
*181 flipflop2\.q
*182 flipflop20\.d
*183 flipflop21\.d
*184 flipflop22\.d
*185 flipflop23\.d
*186 flipflop3\.q
*187 flipflop4\.q
*188 flipflop5\.q
*189 flipflop6\.q
*190 flipflop7\.q
*191 flipflop8\.q
*192 flipflop9\.d
*193 net1
*194 net2
*195 net3
*196 net4
*197 net5
*198 net6
*199 net7
*200 net8
*201 net9
*202 or30\.out
*203 or31\.out
*204 or32\.out
*205 or33\.out
*206 or34\.out
*207 or35\.out
*208 or36\.out
*209 FILLER_0_109
*210 FILLER_0_113
*211 FILLER_0_125
*212 FILLER_0_137
*213 FILLER_0_141
*214 FILLER_0_15
*215 FILLER_0_153
*216 FILLER_0_165
*217 FILLER_0_169
*218 FILLER_0_181
*219 FILLER_0_193
*220 FILLER_0_197
*221 FILLER_0_209
*222 FILLER_0_221
*223 FILLER_0_225
*224 FILLER_0_237
*225 FILLER_0_249
*226 FILLER_0_253
*227 FILLER_0_265
*228 FILLER_0_27
*229 FILLER_0_277
*230 FILLER_0_281
*231 FILLER_0_29
*232 FILLER_0_293
*233 FILLER_0_3
*234 FILLER_0_41
*235 FILLER_0_53
*236 FILLER_0_57
*237 FILLER_0_69
*238 FILLER_0_81
*239 FILLER_0_85
*240 FILLER_0_97
*241 FILLER_10_109
*242 FILLER_10_121
*243 FILLER_10_133
*244 FILLER_10_139
*245 FILLER_10_141
*246 FILLER_10_153
*247 FILLER_10_165
*248 FILLER_10_177
*249 FILLER_10_189
*250 FILLER_10_195
*251 FILLER_10_197
*252 FILLER_10_209
*253 FILLER_10_21
*254 FILLER_10_221
*255 FILLER_10_233
*256 FILLER_10_245
*257 FILLER_10_251
*258 FILLER_10_253
*259 FILLER_10_265
*260 FILLER_10_27
*261 FILLER_10_277
*262 FILLER_10_289
*263 FILLER_10_29
*264 FILLER_10_297
*265 FILLER_10_3
*266 FILLER_10_48
*267 FILLER_10_60
*268 FILLER_10_72
*269 FILLER_10_85
*270 FILLER_10_97
*271 FILLER_11_10
*272 FILLER_11_105
*273 FILLER_11_111
*274 FILLER_11_113
*275 FILLER_11_125
*276 FILLER_11_137
*277 FILLER_11_149
*278 FILLER_11_161
*279 FILLER_11_167
*280 FILLER_11_169
*281 FILLER_11_181
*282 FILLER_11_193
*283 FILLER_11_205
*284 FILLER_11_217
*285 FILLER_11_223
*286 FILLER_11_225
*287 FILLER_11_237
*288 FILLER_11_249
*289 FILLER_11_261
*290 FILLER_11_273
*291 FILLER_11_279
*292 FILLER_11_281
*293 FILLER_11_293
*294 FILLER_11_3
*295 FILLER_11_36
*296 FILLER_11_43
*297 FILLER_11_55
*298 FILLER_11_57
*299 FILLER_11_69
*300 FILLER_11_81
*301 FILLER_11_93
*302 FILLER_12_109
*303 FILLER_12_12
*304 FILLER_12_121
*305 FILLER_12_133
*306 FILLER_12_139
*307 FILLER_12_141
*308 FILLER_12_153
*309 FILLER_12_165
*310 FILLER_12_177
*311 FILLER_12_18
*312 FILLER_12_189
*313 FILLER_12_195
*314 FILLER_12_197
*315 FILLER_12_209
*316 FILLER_12_221
*317 FILLER_12_233
*318 FILLER_12_245
*319 FILLER_12_25
*320 FILLER_12_251
*321 FILLER_12_253
*322 FILLER_12_265
*323 FILLER_12_277
*324 FILLER_12_289
*325 FILLER_12_29
*326 FILLER_12_297
*327 FILLER_12_3
*328 FILLER_12_38
*329 FILLER_12_44
*330 FILLER_12_65
*331 FILLER_12_77
*332 FILLER_12_83
*333 FILLER_12_85
*334 FILLER_12_97
*335 FILLER_13_105
*336 FILLER_13_111
*337 FILLER_13_113
*338 FILLER_13_125
*339 FILLER_13_137
*340 FILLER_13_149
*341 FILLER_13_161
*342 FILLER_13_167
*343 FILLER_13_169
*344 FILLER_13_181
*345 FILLER_13_193
*346 FILLER_13_205
*347 FILLER_13_217
*348 FILLER_13_22
*349 FILLER_13_223
*350 FILLER_13_225
*351 FILLER_13_237
*352 FILLER_13_249
*353 FILLER_13_261
*354 FILLER_13_273
*355 FILLER_13_279
*356 FILLER_13_281
*357 FILLER_13_293
*358 FILLER_13_3
*359 FILLER_13_33
*360 FILLER_13_41
*361 FILLER_13_48
*362 FILLER_13_57
*363 FILLER_13_69
*364 FILLER_13_81
*365 FILLER_13_93
*366 FILLER_14_109
*367 FILLER_14_121
*368 FILLER_14_13
*369 FILLER_14_133
*370 FILLER_14_139
*371 FILLER_14_141
*372 FILLER_14_153
*373 FILLER_14_165
*374 FILLER_14_177
*375 FILLER_14_189
*376 FILLER_14_195
*377 FILLER_14_197
*378 FILLER_14_209
*379 FILLER_14_221
*380 FILLER_14_233
*381 FILLER_14_245
*382 FILLER_14_25
*383 FILLER_14_251
*384 FILLER_14_253
*385 FILLER_14_265
*386 FILLER_14_277
*387 FILLER_14_289
*388 FILLER_14_29
*389 FILLER_14_297
*390 FILLER_14_3
*391 FILLER_14_51
*392 FILLER_14_63
*393 FILLER_14_75
*394 FILLER_14_83
*395 FILLER_14_85
*396 FILLER_14_97
*397 FILLER_15_10
*398 FILLER_15_110
*399 FILLER_15_113
*400 FILLER_15_125
*401 FILLER_15_137
*402 FILLER_15_149
*403 FILLER_15_161
*404 FILLER_15_167
*405 FILLER_15_169
*406 FILLER_15_181
*407 FILLER_15_19
*408 FILLER_15_193
*409 FILLER_15_205
*410 FILLER_15_217
*411 FILLER_15_223
*412 FILLER_15_225
*413 FILLER_15_237
*414 FILLER_15_249
*415 FILLER_15_261
*416 FILLER_15_273
*417 FILLER_15_279
*418 FILLER_15_281
*419 FILLER_15_29
*420 FILLER_15_293
*421 FILLER_15_3
*422 FILLER_15_41
*423 FILLER_15_48
*424 FILLER_15_57
*425 FILLER_15_62
*426 FILLER_15_74
*427 FILLER_15_86
*428 FILLER_15_98
*429 FILLER_16_109
*430 FILLER_16_121
*431 FILLER_16_133
*432 FILLER_16_139
*433 FILLER_16_141
*434 FILLER_16_153
*435 FILLER_16_165
*436 FILLER_16_177
*437 FILLER_16_189
*438 FILLER_16_195
*439 FILLER_16_197
*440 FILLER_16_209
*441 FILLER_16_221
*442 FILLER_16_233
*443 FILLER_16_24
*444 FILLER_16_245
*445 FILLER_16_251
*446 FILLER_16_253
*447 FILLER_16_265
*448 FILLER_16_277
*449 FILLER_16_289
*450 FILLER_16_29
*451 FILLER_16_297
*452 FILLER_16_3
*453 FILLER_16_40
*454 FILLER_16_62
*455 FILLER_16_74
*456 FILLER_16_82
*457 FILLER_16_85
*458 FILLER_16_9
*459 FILLER_16_97
*460 FILLER_17_109
*461 FILLER_17_113
*462 FILLER_17_125
*463 FILLER_17_137
*464 FILLER_17_149
*465 FILLER_17_161
*466 FILLER_17_167
*467 FILLER_17_169
*468 FILLER_17_181
*469 FILLER_17_193
*470 FILLER_17_205
*471 FILLER_17_21
*472 FILLER_17_217
*473 FILLER_17_223
*474 FILLER_17_225
*475 FILLER_17_237
*476 FILLER_17_249
*477 FILLER_17_261
*478 FILLER_17_273
*479 FILLER_17_279
*480 FILLER_17_281
*481 FILLER_17_293
*482 FILLER_17_3
*483 FILLER_17_38
*484 FILLER_17_44
*485 FILLER_17_52
*486 FILLER_17_57
*487 FILLER_17_66
*488 FILLER_17_73
*489 FILLER_17_85
*490 FILLER_17_97
*491 FILLER_18_109
*492 FILLER_18_121
*493 FILLER_18_13
*494 FILLER_18_133
*495 FILLER_18_139
*496 FILLER_18_141
*497 FILLER_18_153
*498 FILLER_18_165
*499 FILLER_18_177
*500 FILLER_18_189
*501 FILLER_18_195
*502 FILLER_18_197
*503 FILLER_18_209
*504 FILLER_18_21
*505 FILLER_18_221
*506 FILLER_18_233
*507 FILLER_18_245
*508 FILLER_18_251
*509 FILLER_18_253
*510 FILLER_18_26
*511 FILLER_18_265
*512 FILLER_18_277
*513 FILLER_18_289
*514 FILLER_18_29
*515 FILLER_18_297
*516 FILLER_18_3
*517 FILLER_18_39
*518 FILLER_18_59
*519 FILLER_18_7
*520 FILLER_18_74
*521 FILLER_18_81
*522 FILLER_18_85
*523 FILLER_18_97
*524 FILLER_19_101
*525 FILLER_19_109
*526 FILLER_19_113
*527 FILLER_19_125
*528 FILLER_19_13
*529 FILLER_19_137
*530 FILLER_19_149
*531 FILLER_19_161
*532 FILLER_19_167
*533 FILLER_19_169
*534 FILLER_19_181
*535 FILLER_19_193
*536 FILLER_19_205
*537 FILLER_19_217
*538 FILLER_19_223
*539 FILLER_19_225
*540 FILLER_19_237
*541 FILLER_19_249
*542 FILLER_19_261
*543 FILLER_19_273
*544 FILLER_19_279
*545 FILLER_19_281
*546 FILLER_19_293
*547 FILLER_19_3
*548 FILLER_19_38
*549 FILLER_19_51
*550 FILLER_19_55
*551 FILLER_19_57
*552 FILLER_19_77
*553 FILLER_19_89
*554 FILLER_1_105
*555 FILLER_1_111
*556 FILLER_1_113
*557 FILLER_1_125
*558 FILLER_1_137
*559 FILLER_1_149
*560 FILLER_1_15
*561 FILLER_1_161
*562 FILLER_1_167
*563 FILLER_1_169
*564 FILLER_1_181
*565 FILLER_1_193
*566 FILLER_1_205
*567 FILLER_1_217
*568 FILLER_1_223
*569 FILLER_1_225
*570 FILLER_1_237
*571 FILLER_1_249
*572 FILLER_1_261
*573 FILLER_1_27
*574 FILLER_1_273
*575 FILLER_1_279
*576 FILLER_1_281
*577 FILLER_1_293
*578 FILLER_1_3
*579 FILLER_1_39
*580 FILLER_1_51
*581 FILLER_1_55
*582 FILLER_1_57
*583 FILLER_1_69
*584 FILLER_1_81
*585 FILLER_1_93
*586 FILLER_20_109
*587 FILLER_20_121
*588 FILLER_20_133
*589 FILLER_20_139
*590 FILLER_20_141
*591 FILLER_20_153
*592 FILLER_20_165
*593 FILLER_20_177
*594 FILLER_20_189
*595 FILLER_20_195
*596 FILLER_20_197
*597 FILLER_20_209
*598 FILLER_20_21
*599 FILLER_20_221
*600 FILLER_20_233
*601 FILLER_20_245
*602 FILLER_20_251
*603 FILLER_20_253
*604 FILLER_20_265
*605 FILLER_20_27
*606 FILLER_20_277
*607 FILLER_20_289
*608 FILLER_20_29
*609 FILLER_20_297
*610 FILLER_20_3
*611 FILLER_20_39
*612 FILLER_20_63
*613 FILLER_20_75
*614 FILLER_20_83
*615 FILLER_20_85
*616 FILLER_20_97
*617 FILLER_21_10
*618 FILLER_21_106
*619 FILLER_21_113
*620 FILLER_21_125
*621 FILLER_21_137
*622 FILLER_21_149
*623 FILLER_21_16
*624 FILLER_21_161
*625 FILLER_21_167
*626 FILLER_21_169
*627 FILLER_21_181
*628 FILLER_21_193
*629 FILLER_21_205
*630 FILLER_21_217
*631 FILLER_21_223
*632 FILLER_21_225
*633 FILLER_21_23
*634 FILLER_21_237
*635 FILLER_21_249
*636 FILLER_21_261
*637 FILLER_21_27
*638 FILLER_21_273
*639 FILLER_21_279
*640 FILLER_21_281
*641 FILLER_21_293
*642 FILLER_21_3
*643 FILLER_21_31
*644 FILLER_21_41
*645 FILLER_21_53
*646 FILLER_21_57
*647 FILLER_21_75
*648 FILLER_21_82
*649 FILLER_21_94
*650 FILLER_22_109
*651 FILLER_22_11
*652 FILLER_22_121
*653 FILLER_22_133
*654 FILLER_22_139
*655 FILLER_22_141
*656 FILLER_22_153
*657 FILLER_22_165
*658 FILLER_22_17
*659 FILLER_22_177
*660 FILLER_22_189
*661 FILLER_22_195
*662 FILLER_22_197
*663 FILLER_22_209
*664 FILLER_22_221
*665 FILLER_22_233
*666 FILLER_22_245
*667 FILLER_22_251
*668 FILLER_22_253
*669 FILLER_22_26
*670 FILLER_22_265
*671 FILLER_22_277
*672 FILLER_22_289
*673 FILLER_22_29
*674 FILLER_22_297
*675 FILLER_22_3
*676 FILLER_22_33
*677 FILLER_22_50
*678 FILLER_22_57
*679 FILLER_22_63
*680 FILLER_22_80
*681 FILLER_22_85
*682 FILLER_22_97
*683 FILLER_23_108
*684 FILLER_23_113
*685 FILLER_23_125
*686 FILLER_23_13
*687 FILLER_23_137
*688 FILLER_23_149
*689 FILLER_23_161
*690 FILLER_23_167
*691 FILLER_23_169
*692 FILLER_23_17
*693 FILLER_23_181
*694 FILLER_23_193
*695 FILLER_23_205
*696 FILLER_23_217
*697 FILLER_23_223
*698 FILLER_23_225
*699 FILLER_23_237
*700 FILLER_23_249
*701 FILLER_23_261
*702 FILLER_23_273
*703 FILLER_23_279
*704 FILLER_23_281
*705 FILLER_23_293
*706 FILLER_23_3
*707 FILLER_23_34
*708 FILLER_23_54
*709 FILLER_23_57
*710 FILLER_23_68
*711 FILLER_23_84
*712 FILLER_23_96
*713 FILLER_24_109
*714 FILLER_24_121
*715 FILLER_24_133
*716 FILLER_24_139
*717 FILLER_24_141
*718 FILLER_24_153
*719 FILLER_24_165
*720 FILLER_24_177
*721 FILLER_24_189
*722 FILLER_24_195
*723 FILLER_24_197
*724 FILLER_24_209
*725 FILLER_24_21
*726 FILLER_24_221
*727 FILLER_24_233
*728 FILLER_24_245
*729 FILLER_24_251
*730 FILLER_24_253
*731 FILLER_24_265
*732 FILLER_24_27
*733 FILLER_24_277
*734 FILLER_24_289
*735 FILLER_24_29
*736 FILLER_24_297
*737 FILLER_24_3
*738 FILLER_24_44
*739 FILLER_24_48
*740 FILLER_24_58
*741 FILLER_24_80
*742 FILLER_24_85
*743 FILLER_24_97
*744 FILLER_25_110
*745 FILLER_25_113
*746 FILLER_25_125
*747 FILLER_25_137
*748 FILLER_25_149
*749 FILLER_25_15
*750 FILLER_25_161
*751 FILLER_25_167
*752 FILLER_25_169
*753 FILLER_25_181
*754 FILLER_25_19
*755 FILLER_25_193
*756 FILLER_25_205
*757 FILLER_25_217
*758 FILLER_25_223
*759 FILLER_25_225
*760 FILLER_25_237
*761 FILLER_25_249
*762 FILLER_25_261
*763 FILLER_25_273
*764 FILLER_25_279
*765 FILLER_25_28
*766 FILLER_25_281
*767 FILLER_25_293
*768 FILLER_25_3
*769 FILLER_25_49
*770 FILLER_25_55
*771 FILLER_25_57
*772 FILLER_25_75
*773 FILLER_25_86
*774 FILLER_25_98
*775 FILLER_26_109
*776 FILLER_26_121
*777 FILLER_26_133
*778 FILLER_26_139
*779 FILLER_26_141
*780 FILLER_26_153
*781 FILLER_26_165
*782 FILLER_26_177
*783 FILLER_26_189
*784 FILLER_26_195
*785 FILLER_26_197
*786 FILLER_26_209
*787 FILLER_26_21
*788 FILLER_26_221
*789 FILLER_26_233
*790 FILLER_26_245
*791 FILLER_26_251
*792 FILLER_26_253
*793 FILLER_26_265
*794 FILLER_26_27
*795 FILLER_26_277
*796 FILLER_26_289
*797 FILLER_26_29
*798 FILLER_26_297
*799 FILLER_26_3
*800 FILLER_26_39
*801 FILLER_26_65
*802 FILLER_26_73
*803 FILLER_26_81
*804 FILLER_26_85
*805 FILLER_26_97
*806 FILLER_27_101
*807 FILLER_27_109
*808 FILLER_27_113
*809 FILLER_27_12
*810 FILLER_27_125
*811 FILLER_27_137
*812 FILLER_27_149
*813 FILLER_27_161
*814 FILLER_27_167
*815 FILLER_27_169
*816 FILLER_27_181
*817 FILLER_27_193
*818 FILLER_27_205
*819 FILLER_27_217
*820 FILLER_27_223
*821 FILLER_27_225
*822 FILLER_27_237
*823 FILLER_27_249
*824 FILLER_27_261
*825 FILLER_27_273
*826 FILLER_27_279
*827 FILLER_27_281
*828 FILLER_27_293
*829 FILLER_27_3
*830 FILLER_27_36
*831 FILLER_27_49
*832 FILLER_27_55
*833 FILLER_27_57
*834 FILLER_27_65
*835 FILLER_27_69
*836 FILLER_27_77
*837 FILLER_27_89
*838 FILLER_28_109
*839 FILLER_28_121
*840 FILLER_28_133
*841 FILLER_28_139
*842 FILLER_28_14
*843 FILLER_28_141
*844 FILLER_28_153
*845 FILLER_28_165
*846 FILLER_28_177
*847 FILLER_28_189
*848 FILLER_28_195
*849 FILLER_28_197
*850 FILLER_28_209
*851 FILLER_28_221
*852 FILLER_28_233
*853 FILLER_28_245
*854 FILLER_28_251
*855 FILLER_28_253
*856 FILLER_28_26
*857 FILLER_28_265
*858 FILLER_28_277
*859 FILLER_28_289
*860 FILLER_28_29
*861 FILLER_28_297
*862 FILLER_28_3
*863 FILLER_28_35
*864 FILLER_28_52
*865 FILLER_28_73
*866 FILLER_28_81
*867 FILLER_28_85
*868 FILLER_28_9
*869 FILLER_28_97
*870 FILLER_29_105
*871 FILLER_29_111
*872 FILLER_29_113
*873 FILLER_29_125
*874 FILLER_29_13
*875 FILLER_29_137
*876 FILLER_29_149
*877 FILLER_29_161
*878 FILLER_29_167
*879 FILLER_29_169
*880 FILLER_29_181
*881 FILLER_29_193
*882 FILLER_29_205
*883 FILLER_29_217
*884 FILLER_29_223
*885 FILLER_29_225
*886 FILLER_29_237
*887 FILLER_29_249
*888 FILLER_29_25
*889 FILLER_29_261
*890 FILLER_29_273
*891 FILLER_29_279
*892 FILLER_29_281
*893 FILLER_29_293
*894 FILLER_29_3
*895 FILLER_29_42
*896 FILLER_29_54
*897 FILLER_29_57
*898 FILLER_29_66
*899 FILLER_29_74
*900 FILLER_29_81
*901 FILLER_29_93
*902 FILLER_2_109
*903 FILLER_2_121
*904 FILLER_2_133
*905 FILLER_2_139
*906 FILLER_2_141
*907 FILLER_2_15
*908 FILLER_2_153
*909 FILLER_2_165
*910 FILLER_2_177
*911 FILLER_2_189
*912 FILLER_2_195
*913 FILLER_2_197
*914 FILLER_2_209
*915 FILLER_2_221
*916 FILLER_2_233
*917 FILLER_2_245
*918 FILLER_2_251
*919 FILLER_2_253
*920 FILLER_2_265
*921 FILLER_2_27
*922 FILLER_2_277
*923 FILLER_2_289
*924 FILLER_2_29
*925 FILLER_2_297
*926 FILLER_2_3
*927 FILLER_2_41
*928 FILLER_2_53
*929 FILLER_2_65
*930 FILLER_2_77
*931 FILLER_2_83
*932 FILLER_2_85
*933 FILLER_2_97
*934 FILLER_30_109
*935 FILLER_30_121
*936 FILLER_30_133
*937 FILLER_30_139
*938 FILLER_30_141
*939 FILLER_30_153
*940 FILLER_30_165
*941 FILLER_30_177
*942 FILLER_30_189
*943 FILLER_30_195
*944 FILLER_30_197
*945 FILLER_30_209
*946 FILLER_30_21
*947 FILLER_30_221
*948 FILLER_30_233
*949 FILLER_30_245
*950 FILLER_30_251
*951 FILLER_30_253
*952 FILLER_30_265
*953 FILLER_30_27
*954 FILLER_30_277
*955 FILLER_30_289
*956 FILLER_30_29
*957 FILLER_30_297
*958 FILLER_30_3
*959 FILLER_30_38
*960 FILLER_30_42
*961 FILLER_30_59
*962 FILLER_30_70
*963 FILLER_30_82
*964 FILLER_30_85
*965 FILLER_30_97
*966 FILLER_31_101
*967 FILLER_31_109
*968 FILLER_31_113
*969 FILLER_31_125
*970 FILLER_31_137
*971 FILLER_31_149
*972 FILLER_31_161
*973 FILLER_31_167
*974 FILLER_31_169
*975 FILLER_31_18
*976 FILLER_31_181
*977 FILLER_31_193
*978 FILLER_31_205
*979 FILLER_31_217
*980 FILLER_31_223
*981 FILLER_31_225
*982 FILLER_31_237
*983 FILLER_31_249
*984 FILLER_31_25
*985 FILLER_31_261
*986 FILLER_31_273
*987 FILLER_31_279
*988 FILLER_31_281
*989 FILLER_31_293
*990 FILLER_31_3
*991 FILLER_31_37
*992 FILLER_31_53
*993 FILLER_31_57
*994 FILLER_31_77
*995 FILLER_31_89
*996 FILLER_32_109
*997 FILLER_32_121
*998 FILLER_32_133
*999 FILLER_32_139
*1000 FILLER_32_141
*1001 FILLER_32_153
*1002 FILLER_32_165
*1003 FILLER_32_177
*1004 FILLER_32_189
*1005 FILLER_32_195
*1006 FILLER_32_197
*1007 FILLER_32_209
*1008 FILLER_32_21
*1009 FILLER_32_221
*1010 FILLER_32_233
*1011 FILLER_32_245
*1012 FILLER_32_251
*1013 FILLER_32_253
*1014 FILLER_32_265
*1015 FILLER_32_27
*1016 FILLER_32_277
*1017 FILLER_32_289
*1018 FILLER_32_29
*1019 FILLER_32_297
*1020 FILLER_32_3
*1021 FILLER_32_36
*1022 FILLER_32_40
*1023 FILLER_32_49
*1024 FILLER_32_57
*1025 FILLER_32_68
*1026 FILLER_32_80
*1027 FILLER_32_85
*1028 FILLER_32_97
*1029 FILLER_33_104
*1030 FILLER_33_113
*1031 FILLER_33_125
*1032 FILLER_33_137
*1033 FILLER_33_14
*1034 FILLER_33_149
*1035 FILLER_33_161
*1036 FILLER_33_167
*1037 FILLER_33_169
*1038 FILLER_33_181
*1039 FILLER_33_193
*1040 FILLER_33_205
*1041 FILLER_33_217
*1042 FILLER_33_223
*1043 FILLER_33_225
*1044 FILLER_33_237
*1045 FILLER_33_249
*1046 FILLER_33_261
*1047 FILLER_33_273
*1048 FILLER_33_279
*1049 FILLER_33_281
*1050 FILLER_33_293
*1051 FILLER_33_3
*1052 FILLER_33_34
*1053 FILLER_33_54
*1054 FILLER_33_57
*1055 FILLER_33_63
*1056 FILLER_33_80
*1057 FILLER_33_9
*1058 FILLER_33_92
*1059 FILLER_34_109
*1060 FILLER_34_121
*1061 FILLER_34_133
*1062 FILLER_34_139
*1063 FILLER_34_141
*1064 FILLER_34_15
*1065 FILLER_34_153
*1066 FILLER_34_165
*1067 FILLER_34_177
*1068 FILLER_34_189
*1069 FILLER_34_195
*1070 FILLER_34_197
*1071 FILLER_34_209
*1072 FILLER_34_221
*1073 FILLER_34_233
*1074 FILLER_34_245
*1075 FILLER_34_251
*1076 FILLER_34_253
*1077 FILLER_34_26
*1078 FILLER_34_265
*1079 FILLER_34_277
*1080 FILLER_34_289
*1081 FILLER_34_29
*1082 FILLER_34_297
*1083 FILLER_34_3
*1084 FILLER_34_38
*1085 FILLER_34_51
*1086 FILLER_34_59
*1087 FILLER_34_68
*1088 FILLER_34_79
*1089 FILLER_34_83
*1090 FILLER_34_85
*1091 FILLER_34_97
*1092 FILLER_35_103
*1093 FILLER_35_111
*1094 FILLER_35_113
*1095 FILLER_35_125
*1096 FILLER_35_137
*1097 FILLER_35_149
*1098 FILLER_35_161
*1099 FILLER_35_167
*1100 FILLER_35_169
*1101 FILLER_35_18
*1102 FILLER_35_181
*1103 FILLER_35_193
*1104 FILLER_35_205
*1105 FILLER_35_217
*1106 FILLER_35_223
*1107 FILLER_35_225
*1108 FILLER_35_237
*1109 FILLER_35_24
*1110 FILLER_35_249
*1111 FILLER_35_261
*1112 FILLER_35_273
*1113 FILLER_35_279
*1114 FILLER_35_281
*1115 FILLER_35_293
*1116 FILLER_35_3
*1117 FILLER_35_33
*1118 FILLER_35_45
*1119 FILLER_35_52
*1120 FILLER_35_57
*1121 FILLER_35_67
*1122 FILLER_35_79
*1123 FILLER_35_9
*1124 FILLER_35_91
*1125 FILLER_36_109
*1126 FILLER_36_121
*1127 FILLER_36_133
*1128 FILLER_36_139
*1129 FILLER_36_141
*1130 FILLER_36_153
*1131 FILLER_36_165
*1132 FILLER_36_177
*1133 FILLER_36_189
*1134 FILLER_36_195
*1135 FILLER_36_197
*1136 FILLER_36_209
*1137 FILLER_36_21
*1138 FILLER_36_221
*1139 FILLER_36_233
*1140 FILLER_36_245
*1141 FILLER_36_251
*1142 FILLER_36_253
*1143 FILLER_36_265
*1144 FILLER_36_27
*1145 FILLER_36_277
*1146 FILLER_36_289
*1147 FILLER_36_29
*1148 FILLER_36_297
*1149 FILLER_36_3
*1150 FILLER_36_38
*1151 FILLER_36_50
*1152 FILLER_36_61
*1153 FILLER_36_81
*1154 FILLER_36_85
*1155 FILLER_36_97
*1156 FILLER_37_102
*1157 FILLER_37_110
*1158 FILLER_37_113
*1159 FILLER_37_125
*1160 FILLER_37_137
*1161 FILLER_37_14
*1162 FILLER_37_149
*1163 FILLER_37_161
*1164 FILLER_37_167
*1165 FILLER_37_169
*1166 FILLER_37_181
*1167 FILLER_37_193
*1168 FILLER_37_205
*1169 FILLER_37_217
*1170 FILLER_37_223
*1171 FILLER_37_225
*1172 FILLER_37_237
*1173 FILLER_37_249
*1174 FILLER_37_261
*1175 FILLER_37_273
*1176 FILLER_37_279
*1177 FILLER_37_281
*1178 FILLER_37_293
*1179 FILLER_37_3
*1180 FILLER_37_34
*1181 FILLER_37_54
*1182 FILLER_37_57
*1183 FILLER_37_61
*1184 FILLER_37_78
*1185 FILLER_37_90
*1186 FILLER_38_109
*1187 FILLER_38_121
*1188 FILLER_38_133
*1189 FILLER_38_139
*1190 FILLER_38_141
*1191 FILLER_38_153
*1192 FILLER_38_165
*1193 FILLER_38_17
*1194 FILLER_38_177
*1195 FILLER_38_189
*1196 FILLER_38_195
*1197 FILLER_38_197
*1198 FILLER_38_209
*1199 FILLER_38_221
*1200 FILLER_38_233
*1201 FILLER_38_245
*1202 FILLER_38_25
*1203 FILLER_38_251
*1204 FILLER_38_253
*1205 FILLER_38_265
*1206 FILLER_38_277
*1207 FILLER_38_289
*1208 FILLER_38_29
*1209 FILLER_38_297
*1210 FILLER_38_3
*1211 FILLER_38_38
*1212 FILLER_38_49
*1213 FILLER_38_57
*1214 FILLER_38_66
*1215 FILLER_38_77
*1216 FILLER_38_83
*1217 FILLER_38_85
*1218 FILLER_38_97
*1219 FILLER_39_104
*1220 FILLER_39_113
*1221 FILLER_39_125
*1222 FILLER_39_137
*1223 FILLER_39_149
*1224 FILLER_39_161
*1225 FILLER_39_167
*1226 FILLER_39_169
*1227 FILLER_39_18
*1228 FILLER_39_181
*1229 FILLER_39_193
*1230 FILLER_39_205
*1231 FILLER_39_217
*1232 FILLER_39_223
*1233 FILLER_39_225
*1234 FILLER_39_237
*1235 FILLER_39_249
*1236 FILLER_39_26
*1237 FILLER_39_261
*1238 FILLER_39_273
*1239 FILLER_39_279
*1240 FILLER_39_281
*1241 FILLER_39_293
*1242 FILLER_39_3
*1243 FILLER_39_36
*1244 FILLER_39_49
*1245 FILLER_39_55
*1246 FILLER_39_57
*1247 FILLER_39_68
*1248 FILLER_39_80
*1249 FILLER_39_9
*1250 FILLER_39_92
*1251 FILLER_3_105
*1252 FILLER_3_111
*1253 FILLER_3_113
*1254 FILLER_3_125
*1255 FILLER_3_137
*1256 FILLER_3_149
*1257 FILLER_3_15
*1258 FILLER_3_161
*1259 FILLER_3_167
*1260 FILLER_3_169
*1261 FILLER_3_181
*1262 FILLER_3_193
*1263 FILLER_3_205
*1264 FILLER_3_217
*1265 FILLER_3_223
*1266 FILLER_3_225
*1267 FILLER_3_237
*1268 FILLER_3_249
*1269 FILLER_3_261
*1270 FILLER_3_273
*1271 FILLER_3_279
*1272 FILLER_3_281
*1273 FILLER_3_293
*1274 FILLER_3_3
*1275 FILLER_3_33
*1276 FILLER_3_45
*1277 FILLER_3_53
*1278 FILLER_3_57
*1279 FILLER_3_69
*1280 FILLER_3_81
*1281 FILLER_3_93
*1282 FILLER_40_109
*1283 FILLER_40_121
*1284 FILLER_40_133
*1285 FILLER_40_139
*1286 FILLER_40_141
*1287 FILLER_40_153
*1288 FILLER_40_165
*1289 FILLER_40_17
*1290 FILLER_40_177
*1291 FILLER_40_189
*1292 FILLER_40_195
*1293 FILLER_40_197
*1294 FILLER_40_209
*1295 FILLER_40_221
*1296 FILLER_40_233
*1297 FILLER_40_245
*1298 FILLER_40_25
*1299 FILLER_40_251
*1300 FILLER_40_253
*1301 FILLER_40_265
*1302 FILLER_40_277
*1303 FILLER_40_289
*1304 FILLER_40_29
*1305 FILLER_40_297
*1306 FILLER_40_3
*1307 FILLER_40_38
*1308 FILLER_40_50
*1309 FILLER_40_65
*1310 FILLER_40_7
*1311 FILLER_40_77
*1312 FILLER_40_83
*1313 FILLER_40_85
*1314 FILLER_40_97
*1315 FILLER_41_104
*1316 FILLER_41_113
*1317 FILLER_41_125
*1318 FILLER_41_137
*1319 FILLER_41_149
*1320 FILLER_41_161
*1321 FILLER_41_167
*1322 FILLER_41_169
*1323 FILLER_41_17
*1324 FILLER_41_181
*1325 FILLER_41_193
*1326 FILLER_41_205
*1327 FILLER_41_217
*1328 FILLER_41_223
*1329 FILLER_41_225
*1330 FILLER_41_237
*1331 FILLER_41_249
*1332 FILLER_41_261
*1333 FILLER_41_273
*1334 FILLER_41_279
*1335 FILLER_41_281
*1336 FILLER_41_293
*1337 FILLER_41_3
*1338 FILLER_41_30
*1339 FILLER_41_40
*1340 FILLER_41_54
*1341 FILLER_41_57
*1342 FILLER_41_68
*1343 FILLER_41_80
*1344 FILLER_41_92
*1345 FILLER_42_109
*1346 FILLER_42_121
*1347 FILLER_42_13
*1348 FILLER_42_133
*1349 FILLER_42_139
*1350 FILLER_42_141
*1351 FILLER_42_153
*1352 FILLER_42_165
*1353 FILLER_42_177
*1354 FILLER_42_189
*1355 FILLER_42_19
*1356 FILLER_42_195
*1357 FILLER_42_197
*1358 FILLER_42_209
*1359 FILLER_42_221
*1360 FILLER_42_233
*1361 FILLER_42_245
*1362 FILLER_42_251
*1363 FILLER_42_253
*1364 FILLER_42_26
*1365 FILLER_42_265
*1366 FILLER_42_277
*1367 FILLER_42_289
*1368 FILLER_42_29
*1369 FILLER_42_297
*1370 FILLER_42_3
*1371 FILLER_42_38
*1372 FILLER_42_44
*1373 FILLER_42_53
*1374 FILLER_42_59
*1375 FILLER_42_66
*1376 FILLER_42_78
*1377 FILLER_42_85
*1378 FILLER_42_9
*1379 FILLER_42_97
*1380 FILLER_43_105
*1381 FILLER_43_111
*1382 FILLER_43_113
*1383 FILLER_43_125
*1384 FILLER_43_137
*1385 FILLER_43_149
*1386 FILLER_43_161
*1387 FILLER_43_167
*1388 FILLER_43_169
*1389 FILLER_43_181
*1390 FILLER_43_193
*1391 FILLER_43_205
*1392 FILLER_43_217
*1393 FILLER_43_22
*1394 FILLER_43_223
*1395 FILLER_43_225
*1396 FILLER_43_237
*1397 FILLER_43_249
*1398 FILLER_43_261
*1399 FILLER_43_273
*1400 FILLER_43_279
*1401 FILLER_43_281
*1402 FILLER_43_293
*1403 FILLER_43_3
*1404 FILLER_43_32
*1405 FILLER_43_44
*1406 FILLER_43_54
*1407 FILLER_43_57
*1408 FILLER_43_69
*1409 FILLER_43_81
*1410 FILLER_43_9
*1411 FILLER_43_93
*1412 FILLER_44_109
*1413 FILLER_44_11
*1414 FILLER_44_121
*1415 FILLER_44_133
*1416 FILLER_44_139
*1417 FILLER_44_141
*1418 FILLER_44_15
*1419 FILLER_44_153
*1420 FILLER_44_165
*1421 FILLER_44_177
*1422 FILLER_44_189
*1423 FILLER_44_19
*1424 FILLER_44_195
*1425 FILLER_44_197
*1426 FILLER_44_209
*1427 FILLER_44_221
*1428 FILLER_44_233
*1429 FILLER_44_245
*1430 FILLER_44_251
*1431 FILLER_44_253
*1432 FILLER_44_26
*1433 FILLER_44_265
*1434 FILLER_44_277
*1435 FILLER_44_289
*1436 FILLER_44_29
*1437 FILLER_44_297
*1438 FILLER_44_3
*1439 FILLER_44_37
*1440 FILLER_44_46
*1441 FILLER_44_58
*1442 FILLER_44_7
*1443 FILLER_44_70
*1444 FILLER_44_82
*1445 FILLER_44_85
*1446 FILLER_44_97
*1447 FILLER_45_105
*1448 FILLER_45_111
*1449 FILLER_45_113
*1450 FILLER_45_125
*1451 FILLER_45_137
*1452 FILLER_45_149
*1453 FILLER_45_161
*1454 FILLER_45_167
*1455 FILLER_45_169
*1456 FILLER_45_181
*1457 FILLER_45_193
*1458 FILLER_45_205
*1459 FILLER_45_21
*1460 FILLER_45_217
*1461 FILLER_45_223
*1462 FILLER_45_225
*1463 FILLER_45_237
*1464 FILLER_45_249
*1465 FILLER_45_26
*1466 FILLER_45_261
*1467 FILLER_45_273
*1468 FILLER_45_279
*1469 FILLER_45_281
*1470 FILLER_45_293
*1471 FILLER_45_3
*1472 FILLER_45_30
*1473 FILLER_45_36
*1474 FILLER_45_48
*1475 FILLER_45_57
*1476 FILLER_45_69
*1477 FILLER_45_81
*1478 FILLER_45_9
*1479 FILLER_45_93
*1480 FILLER_46_109
*1481 FILLER_46_121
*1482 FILLER_46_133
*1483 FILLER_46_139
*1484 FILLER_46_141
*1485 FILLER_46_15
*1486 FILLER_46_153
*1487 FILLER_46_165
*1488 FILLER_46_177
*1489 FILLER_46_189
*1490 FILLER_46_195
*1491 FILLER_46_197
*1492 FILLER_46_209
*1493 FILLER_46_221
*1494 FILLER_46_233
*1495 FILLER_46_245
*1496 FILLER_46_251
*1497 FILLER_46_253
*1498 FILLER_46_265
*1499 FILLER_46_27
*1500 FILLER_46_277
*1501 FILLER_46_289
*1502 FILLER_46_29
*1503 FILLER_46_297
*1504 FILLER_46_3
*1505 FILLER_46_41
*1506 FILLER_46_53
*1507 FILLER_46_65
*1508 FILLER_46_77
*1509 FILLER_46_83
*1510 FILLER_46_85
*1511 FILLER_46_97
*1512 FILLER_47_105
*1513 FILLER_47_111
*1514 FILLER_47_113
*1515 FILLER_47_125
*1516 FILLER_47_137
*1517 FILLER_47_149
*1518 FILLER_47_15
*1519 FILLER_47_161
*1520 FILLER_47_167
*1521 FILLER_47_169
*1522 FILLER_47_181
*1523 FILLER_47_193
*1524 FILLER_47_205
*1525 FILLER_47_217
*1526 FILLER_47_223
*1527 FILLER_47_225
*1528 FILLER_47_237
*1529 FILLER_47_249
*1530 FILLER_47_261
*1531 FILLER_47_27
*1532 FILLER_47_273
*1533 FILLER_47_279
*1534 FILLER_47_281
*1535 FILLER_47_293
*1536 FILLER_47_3
*1537 FILLER_47_39
*1538 FILLER_47_51
*1539 FILLER_47_55
*1540 FILLER_47_57
*1541 FILLER_47_69
*1542 FILLER_47_81
*1543 FILLER_47_93
*1544 FILLER_48_109
*1545 FILLER_48_121
*1546 FILLER_48_133
*1547 FILLER_48_139
*1548 FILLER_48_141
*1549 FILLER_48_15
*1550 FILLER_48_153
*1551 FILLER_48_165
*1552 FILLER_48_177
*1553 FILLER_48_189
*1554 FILLER_48_195
*1555 FILLER_48_197
*1556 FILLER_48_209
*1557 FILLER_48_221
*1558 FILLER_48_233
*1559 FILLER_48_245
*1560 FILLER_48_251
*1561 FILLER_48_253
*1562 FILLER_48_265
*1563 FILLER_48_27
*1564 FILLER_48_277
*1565 FILLER_48_289
*1566 FILLER_48_29
*1567 FILLER_48_297
*1568 FILLER_48_3
*1569 FILLER_48_41
*1570 FILLER_48_53
*1571 FILLER_48_65
*1572 FILLER_48_77
*1573 FILLER_48_83
*1574 FILLER_48_85
*1575 FILLER_48_97
*1576 FILLER_49_105
*1577 FILLER_49_111
*1578 FILLER_49_113
*1579 FILLER_49_125
*1580 FILLER_49_137
*1581 FILLER_49_149
*1582 FILLER_49_15
*1583 FILLER_49_161
*1584 FILLER_49_167
*1585 FILLER_49_169
*1586 FILLER_49_181
*1587 FILLER_49_193
*1588 FILLER_49_205
*1589 FILLER_49_217
*1590 FILLER_49_223
*1591 FILLER_49_225
*1592 FILLER_49_237
*1593 FILLER_49_249
*1594 FILLER_49_261
*1595 FILLER_49_27
*1596 FILLER_49_273
*1597 FILLER_49_279
*1598 FILLER_49_281
*1599 FILLER_49_293
*1600 FILLER_49_3
*1601 FILLER_49_39
*1602 FILLER_49_51
*1603 FILLER_49_55
*1604 FILLER_49_57
*1605 FILLER_49_69
*1606 FILLER_49_81
*1607 FILLER_49_93
*1608 FILLER_4_109
*1609 FILLER_4_121
*1610 FILLER_4_133
*1611 FILLER_4_139
*1612 FILLER_4_141
*1613 FILLER_4_153
*1614 FILLER_4_165
*1615 FILLER_4_17
*1616 FILLER_4_177
*1617 FILLER_4_189
*1618 FILLER_4_195
*1619 FILLER_4_197
*1620 FILLER_4_209
*1621 FILLER_4_221
*1622 FILLER_4_233
*1623 FILLER_4_245
*1624 FILLER_4_251
*1625 FILLER_4_253
*1626 FILLER_4_26
*1627 FILLER_4_265
*1628 FILLER_4_277
*1629 FILLER_4_289
*1630 FILLER_4_29
*1631 FILLER_4_297
*1632 FILLER_4_3
*1633 FILLER_4_47
*1634 FILLER_4_59
*1635 FILLER_4_71