*SPEF "ieee 1481-1999"
*DESIGN "user_module_357897381919942657"
*DATE "11:11:11 Fri 11 11, 1111"
*VENDOR "OpenRCX"
*PROGRAM "Parallel Extraction"
*VERSION "1.0"
*DESIGN_FLOW "NAME_SCOPE LOCAL" "PIN_CAP NONE"
*DIVIDER /
*DELIMITER :
*BUS_DELIMITER []
*T_UNIT 1 NS
*C_UNIT 1 PF
*R_UNIT 1 OHM
*L_UNIT 1 HENRY

*NAME_MAP
*1 io_in[0]
*2 io_in[1]
*3 io_in[2]
*4 io_in[3]
*5 io_in[4]
*6 io_in[5]
*7 io_in[6]
*8 io_in[7]
*9 io_out[0]
*10 io_out[1]
*11 io_out[2]
*12 io_out[3]
*13 net8
*14 net9
*15 net10
*16 net11
*19 _000_
*20 _001_
*21 _002_
*22 _003_
*23 _004_
*24 _005_
*25 _006_
*26 _007_
*27 _008_
*28 _009_
*29 _010_
*30 _011_
*31 _012_
*32 _013_
*33 _014_
*34 _015_
*35 _016_
*36 _017_
*37 _018_
*38 _019_
*39 _020_
*40 _021_
*41 _022_
*42 _023_
*43 _024_
*44 _025_
*45 _026_
*46 _027_
*47 _028_
*48 _029_
*49 _030_
*50 _031_
*51 _032_
*52 _033_
*53 _034_
*54 _035_
*55 _036_
*56 _037_
*57 _038_
*58 _039_
*59 clknet_0_io_in[0]
*60 clknet_1_0__leaf_io_in[0]
*61 clknet_1_1__leaf_io_in[0]
*62 flipflop10\.q
*63 flipflop11\.q
*64 flipflop12\.q
*65 flipflop13\.q
*66 flipflop14\.q
*67 flipflop15\.q
*68 flipflop16\.q
*69 flipflop17\.q
*70 flipflop2\.q
*71 flipflop3\.q
*72 flipflop4\.q
*73 flipflop5\.q
*74 flipflop6\.q
*75 flipflop7\.q
*76 flipflop8\.q
*77 flipflop9\.q
*78 mux11\.out
*79 mux4\.out
*80 mux6\.out
*81 mux8\.out
*82 net1
*83 net2
*84 net3
*85 net4
*86 net5
*87 net6
*88 net7
*89 FILLER_0_109
*90 FILLER_0_113
*91 FILLER_0_125
*92 FILLER_0_137
*93 FILLER_0_141
*94 FILLER_0_153
*95 FILLER_0_165
*96 FILLER_0_169
*97 FILLER_0_181
*98 FILLER_0_193
*99 FILLER_0_197
*100 FILLER_0_209
*101 FILLER_0_21
*102 FILLER_0_221
*103 FILLER_0_225
*104 FILLER_0_237
*105 FILLER_0_249
*106 FILLER_0_253
*107 FILLER_0_265
*108 FILLER_0_27
*109 FILLER_0_277
*110 FILLER_0_281
*111 FILLER_0_29
*112 FILLER_0_293
*113 FILLER_0_3
*114 FILLER_0_47
*115 FILLER_0_55
*116 FILLER_0_57
*117 FILLER_0_75
*118 FILLER_0_83
*119 FILLER_0_85
*120 FILLER_0_97
*121 FILLER_10_109
*122 FILLER_10_12
*123 FILLER_10_121
*124 FILLER_10_133
*125 FILLER_10_139
*126 FILLER_10_141
*127 FILLER_10_153
*128 FILLER_10_165
*129 FILLER_10_177
*130 FILLER_10_189
*131 FILLER_10_195
*132 FILLER_10_197
*133 FILLER_10_209
*134 FILLER_10_221
*135 FILLER_10_233
*136 FILLER_10_24
*137 FILLER_10_245
*138 FILLER_10_251
*139 FILLER_10_253
*140 FILLER_10_265
*141 FILLER_10_277
*142 FILLER_10_289
*143 FILLER_10_29
*144 FILLER_10_297
*145 FILLER_10_3
*146 FILLER_10_41
*147 FILLER_10_53
*148 FILLER_10_65
*149 FILLER_10_77
*150 FILLER_10_83
*151 FILLER_10_85
*152 FILLER_10_97
*153 FILLER_11_105
*154 FILLER_11_111
*155 FILLER_11_113
*156 FILLER_11_12
*157 FILLER_11_125
*158 FILLER_11_137
*159 FILLER_11_149
*160 FILLER_11_161
*161 FILLER_11_167
*162 FILLER_11_169
*163 FILLER_11_181
*164 FILLER_11_193
*165 FILLER_11_205
*166 FILLER_11_217
*167 FILLER_11_223
*168 FILLER_11_225
*169 FILLER_11_237
*170 FILLER_11_249
*171 FILLER_11_261
*172 FILLER_11_273
*173 FILLER_11_279
*174 FILLER_11_281
*175 FILLER_11_293
*176 FILLER_11_3
*177 FILLER_11_34
*178 FILLER_11_46
*179 FILLER_11_54
*180 FILLER_11_57
*181 FILLER_11_69
*182 FILLER_11_8
*183 FILLER_11_81
*184 FILLER_11_93
*185 FILLER_12_109
*186 FILLER_12_121
*187 FILLER_12_133
*188 FILLER_12_139
*189 FILLER_12_141
*190 FILLER_12_153
*191 FILLER_12_16
*192 FILLER_12_165
*193 FILLER_12_177
*194 FILLER_12_189
*195 FILLER_12_195
*196 FILLER_12_197
*197 FILLER_12_209
*198 FILLER_12_221
*199 FILLER_12_233
*200 FILLER_12_245
*201 FILLER_12_251
*202 FILLER_12_253
*203 FILLER_12_265
*204 FILLER_12_277
*205 FILLER_12_289
*206 FILLER_12_29
*207 FILLER_12_297
*208 FILLER_12_3
*209 FILLER_12_41
*210 FILLER_12_53
*211 FILLER_12_65
*212 FILLER_12_77
*213 FILLER_12_83
*214 FILLER_12_85
*215 FILLER_12_9
*216 FILLER_12_97
*217 FILLER_13_105
*218 FILLER_13_111
*219 FILLER_13_113
*220 FILLER_13_125
*221 FILLER_13_137
*222 FILLER_13_149
*223 FILLER_13_161
*224 FILLER_13_167
*225 FILLER_13_169
*226 FILLER_13_181
*227 FILLER_13_193
*228 FILLER_13_20
*229 FILLER_13_205
*230 FILLER_13_217
*231 FILLER_13_223
*232 FILLER_13_225
*233 FILLER_13_237
*234 FILLER_13_249
*235 FILLER_13_261
*236 FILLER_13_273
*237 FILLER_13_279
*238 FILLER_13_281
*239 FILLER_13_293
*240 FILLER_13_3
*241 FILLER_13_32
*242 FILLER_13_44
*243 FILLER_13_57
*244 FILLER_13_69
*245 FILLER_13_8
*246 FILLER_13_81
*247 FILLER_13_93
*248 FILLER_14_109
*249 FILLER_14_121
*250 FILLER_14_133
*251 FILLER_14_139
*252 FILLER_14_141
*253 FILLER_14_15
*254 FILLER_14_153
*255 FILLER_14_165
*256 FILLER_14_177
*257 FILLER_14_189
*258 FILLER_14_195
*259 FILLER_14_197
*260 FILLER_14_209
*261 FILLER_14_221
*262 FILLER_14_233
*263 FILLER_14_245
*264 FILLER_14_251
*265 FILLER_14_253
*266 FILLER_14_265
*267 FILLER_14_27
*268 FILLER_14_277
*269 FILLER_14_289
*270 FILLER_14_29
*271 FILLER_14_297
*272 FILLER_14_3
*273 FILLER_14_41
*274 FILLER_14_53
*275 FILLER_14_65
*276 FILLER_14_77
*277 FILLER_14_83
*278 FILLER_14_85
*279 FILLER_14_97
*280 FILLER_15_105
*281 FILLER_15_111
*282 FILLER_15_113
*283 FILLER_15_125
*284 FILLER_15_137
*285 FILLER_15_149
*286 FILLER_15_161
*287 FILLER_15_167
*288 FILLER_15_169
*289 FILLER_15_181
*290 FILLER_15_193
*291 FILLER_15_20
*292 FILLER_15_205
*293 FILLER_15_217
*294 FILLER_15_223
*295 FILLER_15_225
*296 FILLER_15_237
*297 FILLER_15_249
*298 FILLER_15_261
*299 FILLER_15_273
*300 FILLER_15_279
*301 FILLER_15_281
*302 FILLER_15_293
*303 FILLER_15_3
*304 FILLER_15_32
*305 FILLER_15_44
*306 FILLER_15_57
*307 FILLER_15_69
*308 FILLER_15_8
*309 FILLER_15_81
*310 FILLER_15_93
*311 FILLER_16_109
*312 FILLER_16_121
*313 FILLER_16_133
*314 FILLER_16_139
*315 FILLER_16_141
*316 FILLER_16_153
*317 FILLER_16_16
*318 FILLER_16_165
*319 FILLER_16_177
*320 FILLER_16_189
*321 FILLER_16_195
*322 FILLER_16_197
*323 FILLER_16_209
*324 FILLER_16_221
*325 FILLER_16_233
*326 FILLER_16_245
*327 FILLER_16_251
*328 FILLER_16_253
*329 FILLER_16_265
*330 FILLER_16_277
*331 FILLER_16_289
*332 FILLER_16_29
*333 FILLER_16_297
*334 FILLER_16_3
*335 FILLER_16_41
*336 FILLER_16_53
*337 FILLER_16_65
*338 FILLER_16_77
*339 FILLER_16_83
*340 FILLER_16_85
*341 FILLER_16_97
*342 FILLER_17_105
*343 FILLER_17_111
*344 FILLER_17_113
*345 FILLER_17_125
*346 FILLER_17_137
*347 FILLER_17_149
*348 FILLER_17_15
*349 FILLER_17_161
*350 FILLER_17_167
*351 FILLER_17_169
*352 FILLER_17_181
*353 FILLER_17_193
*354 FILLER_17_205
*355 FILLER_17_217
*356 FILLER_17_223
*357 FILLER_17_225
*358 FILLER_17_23
*359 FILLER_17_237
*360 FILLER_17_249
*361 FILLER_17_261
*362 FILLER_17_273
*363 FILLER_17_279
*364 FILLER_17_281
*365 FILLER_17_293
*366 FILLER_17_3
*367 FILLER_17_33
*368 FILLER_17_45
*369 FILLER_17_49
*370 FILLER_17_55
*371 FILLER_17_57
*372 FILLER_17_69
*373 FILLER_17_81
*374 FILLER_17_93
*375 FILLER_18_109
*376 FILLER_18_121
*377 FILLER_18_133
*378 FILLER_18_139
*379 FILLER_18_14
*380 FILLER_18_141
*381 FILLER_18_153
*382 FILLER_18_165
*383 FILLER_18_177
*384 FILLER_18_189
*385 FILLER_18_195
*386 FILLER_18_197
*387 FILLER_18_209
*388 FILLER_18_21
*389 FILLER_18_221
*390 FILLER_18_233
*391 FILLER_18_245
*392 FILLER_18_251
*393 FILLER_18_253
*394 FILLER_18_265
*395 FILLER_18_27
*396 FILLER_18_277
*397 FILLER_18_289
*398 FILLER_18_29
*399 FILLER_18_297
*400 FILLER_18_3
*401 FILLER_18_40
*402 FILLER_18_52
*403 FILLER_18_64
*404 FILLER_18_76
*405 FILLER_18_85
*406 FILLER_18_97
*407 FILLER_19_105
*408 FILLER_19_111
*409 FILLER_19_113
*410 FILLER_19_125
*411 FILLER_19_137
*412 FILLER_19_149
*413 FILLER_19_161
*414 FILLER_19_167
*415 FILLER_19_169
*416 FILLER_19_17
*417 FILLER_19_181
*418 FILLER_19_193
*419 FILLER_19_205
*420 FILLER_19_217
*421 FILLER_19_223
*422 FILLER_19_225
*423 FILLER_19_237
*424 FILLER_19_249
*425 FILLER_19_261
*426 FILLER_19_273
*427 FILLER_19_279
*428 FILLER_19_281
*429 FILLER_19_293
*430 FILLER_19_3
*431 FILLER_19_32
*432 FILLER_19_47
*433 FILLER_19_55
*434 FILLER_19_57
*435 FILLER_19_69
*436 FILLER_19_8
*437 FILLER_19_81
*438 FILLER_19_93
*439 FILLER_1_111
*440 FILLER_1_113
*441 FILLER_1_125
*442 FILLER_1_137
*443 FILLER_1_149
*444 FILLER_1_15
*445 FILLER_1_161
*446 FILLER_1_167
*447 FILLER_1_169
*448 FILLER_1_181
*449 FILLER_1_193
*450 FILLER_1_205
*451 FILLER_1_217
*452 FILLER_1_223
*453 FILLER_1_225
*454 FILLER_1_237
*455 FILLER_1_249
*456 FILLER_1_261
*457 FILLER_1_273
*458 FILLER_1_279
*459 FILLER_1_281
*460 FILLER_1_293
*461 FILLER_1_3
*462 FILLER_1_36
*463 FILLER_1_48
*464 FILLER_1_57
*465 FILLER_1_75
*466 FILLER_1_87
*467 FILLER_1_99
*468 FILLER_20_109
*469 FILLER_20_121
*470 FILLER_20_133
*471 FILLER_20_139
*472 FILLER_20_141
*473 FILLER_20_153
*474 FILLER_20_165
*475 FILLER_20_177
*476 FILLER_20_189
*477 FILLER_20_195
*478 FILLER_20_197
*479 FILLER_20_209
*480 FILLER_20_21
*481 FILLER_20_221
*482 FILLER_20_233
*483 FILLER_20_245
*484 FILLER_20_251
*485 FILLER_20_253
*486 FILLER_20_265
*487 FILLER_20_27
*488 FILLER_20_277
*489 FILLER_20_289
*490 FILLER_20_29
*491 FILLER_20_297
*492 FILLER_20_3
*493 FILLER_20_44
*494 FILLER_20_56
*495 FILLER_20_68
*496 FILLER_20_8
*497 FILLER_20_80
*498 FILLER_20_85
*499 FILLER_20_97
*500 FILLER_21_105
*501 FILLER_21_111
*502 FILLER_21_113
*503 FILLER_21_125
*504 FILLER_21_137
*505 FILLER_21_14
*506 FILLER_21_149
*507 FILLER_21_161
*508 FILLER_21_167
*509 FILLER_21_169
*510 FILLER_21_181
*511 FILLER_21_193
*512 FILLER_21_205
*513 FILLER_21_21
*514 FILLER_21_217
*515 FILLER_21_223
*516 FILLER_21_225
*517 FILLER_21_237
*518 FILLER_21_249
*519 FILLER_21_261
*520 FILLER_21_273
*521 FILLER_21_279
*522 FILLER_21_281
*523 FILLER_21_293
*524 FILLER_21_3
*525 FILLER_21_32
*526 FILLER_21_44
*527 FILLER_21_48
*528 FILLER_21_57
*529 FILLER_21_69
*530 FILLER_21_81
*531 FILLER_21_93
*532 FILLER_22_109
*533 FILLER_22_121
*534 FILLER_22_133
*535 FILLER_22_139
*536 FILLER_22_14
*537 FILLER_22_141
*538 FILLER_22_153
*539 FILLER_22_165
*540 FILLER_22_177
*541 FILLER_22_189
*542 FILLER_22_195
*543 FILLER_22_197
*544 FILLER_22_209
*545 FILLER_22_22
*546 FILLER_22_221
*547 FILLER_22_233
*548 FILLER_22_245
*549 FILLER_22_251
*550 FILLER_22_253
*551 FILLER_22_265
*552 FILLER_22_277
*553 FILLER_22_289
*554 FILLER_22_29
*555 FILLER_22_297
*556 FILLER_22_3
*557 FILLER_22_52
*558 FILLER_22_65
*559 FILLER_22_77
*560 FILLER_22_83
*561 FILLER_22_85
*562 FILLER_22_97
*563 FILLER_23_105
*564 FILLER_23_111
*565 FILLER_23_113
*566 FILLER_23_125
*567 FILLER_23_137
*568 FILLER_23_149
*569 FILLER_23_161
*570 FILLER_23_167
*571 FILLER_23_169
*572 FILLER_23_18
*573 FILLER_23_181
*574 FILLER_23_193
*575 FILLER_23_205
*576 FILLER_23_217
*577 FILLER_23_223
*578 FILLER_23_225
*579 FILLER_23_237
*580 FILLER_23_249
*581 FILLER_23_25
*582 FILLER_23_261
*583 FILLER_23_273
*584 FILLER_23_279
*585 FILLER_23_281
*586 FILLER_23_29
*587 FILLER_23_293
*588 FILLER_23_3
*589 FILLER_23_33
*590 FILLER_23_45
*591 FILLER_23_53
*592 FILLER_23_57
*593 FILLER_23_69
*594 FILLER_23_81
*595 FILLER_23_93
*596 FILLER_24_109
*597 FILLER_24_12
*598 FILLER_24_121
*599 FILLER_24_133
*600 FILLER_24_139
*601 FILLER_24_141
*602 FILLER_24_153
*603 FILLER_24_165
*604 FILLER_24_177
*605 FILLER_24_189
*606 FILLER_24_195
*607 FILLER_24_197
*608 FILLER_24_209
*609 FILLER_24_221
*610 FILLER_24_233
*611 FILLER_24_245
*612 FILLER_24_25
*613 FILLER_24_251
*614 FILLER_24_253
*615 FILLER_24_265
*616 FILLER_24_277
*617 FILLER_24_289
*618 FILLER_24_29
*619 FILLER_24_297
*620 FILLER_24_3
*621 FILLER_24_34
*622 FILLER_24_42
*623 FILLER_24_52
*624 FILLER_24_64
*625 FILLER_24_76
*626 FILLER_24_85
*627 FILLER_24_97
*628 FILLER_25_105
*629 FILLER_25_111
*630 FILLER_25_113
*631 FILLER_25_125
*632 FILLER_25_137
*633 FILLER_25_149
*634 FILLER_25_161
*635 FILLER_25_167
*636 FILLER_25_169
*637 FILLER_25_17
*638 FILLER_25_181
*639 FILLER_25_193
*640 FILLER_25_205
*641 FILLER_25_217
*642 FILLER_25_223
*643 FILLER_25_225
*644 FILLER_25_237
*645 FILLER_25_249
*646 FILLER_25_261
*647 FILLER_25_273
*648 FILLER_25_279
*649 FILLER_25_281
*650 FILLER_25_293
*651 FILLER_25_3
*652 FILLER_25_42
*653 FILLER_25_54
*654 FILLER_25_57
*655 FILLER_25_69
*656 FILLER_25_7
*657 FILLER_25_81
*658 FILLER_25_93
*659 FILLER_26_109
*660 FILLER_26_121
*661 FILLER_26_133
*662 FILLER_26_139
*663 FILLER_26_14
*664 FILLER_26_141
*665 FILLER_26_153
*666 FILLER_26_165
*667 FILLER_26_177
*668 FILLER_26_189
*669 FILLER_26_195
*670 FILLER_26_197
*671 FILLER_26_209
*672 FILLER_26_21
*673 FILLER_26_221
*674 FILLER_26_233
*675 FILLER_26_245
*676 FILLER_26_251
*677 FILLER_26_253
*678 FILLER_26_265
*679 FILLER_26_27
*680 FILLER_26_277
*681 FILLER_26_289
*682 FILLER_26_29
*683 FILLER_26_297
*684 FILLER_26_3
*685 FILLER_26_33
*686 FILLER_26_37
*687 FILLER_26_49
*688 FILLER_26_61
*689 FILLER_26_73
*690 FILLER_26_81
*691 FILLER_26_85
*692 FILLER_26_97
*693 FILLER_27_105
*694 FILLER_27_111
*695 FILLER_27_113
*696 FILLER_27_125
*697 FILLER_27_137
*698 FILLER_27_149
*699 FILLER_27_161
*700 FILLER_27_167
*701 FILLER_27_169
*702 FILLER_27_181
*703 FILLER_27_193
*704 FILLER_27_205
*705 FILLER_27_217
*706 FILLER_27_223
*707 FILLER_27_225
*708 FILLER_27_237
*709 FILLER_27_249
*710 FILLER_27_261
*711 FILLER_27_273
*712 FILLER_27_279
*713 FILLER_27_281
*714 FILLER_27_293
*715 FILLER_27_3
*716 FILLER_27_32
*717 FILLER_27_45
*718 FILLER_27_53
*719 FILLER_27_57
*720 FILLER_27_69
*721 FILLER_27_81
*722 FILLER_27_93
*723 FILLER_28_109
*724 FILLER_28_121
*725 FILLER_28_133
*726 FILLER_28_139
*727 FILLER_28_14
*728 FILLER_28_141
*729 FILLER_28_153
*730 FILLER_28_165
*731 FILLER_28_177
*732 FILLER_28_189
*733 FILLER_28_195
*734 FILLER_28_197
*735 FILLER_28_209
*736 FILLER_28_221
*737 FILLER_28_233
*738 FILLER_28_245
*739 FILLER_28_251
*740 FILLER_28_253
*741 FILLER_28_26
*742 FILLER_28_265
*743 FILLER_28_277
*744 FILLER_28_289
*745 FILLER_28_29
*746 FILLER_28_297
*747 FILLER_28_3
*748 FILLER_28_33
*749 FILLER_28_37
*750 FILLER_28_49
*751 FILLER_28_61
*752 FILLER_28_73
*753 FILLER_28_81
*754 FILLER_28_85
*755 FILLER_28_97
*756 FILLER_29_10
*757 FILLER_29_105
*758 FILLER_29_111
*759 FILLER_29_113
*760 FILLER_29_125
*761 FILLER_29_137
*762 FILLER_29_149
*763 FILLER_29_161
*764 FILLER_29_167
*765 FILLER_29_169
*766 FILLER_29_17
*767 FILLER_29_181
*768 FILLER_29_193
*769 FILLER_29_205
*770 FILLER_29_217
*771 FILLER_29_223
*772 FILLER_29_225
*773 FILLER_29_237
*774 FILLER_29_249
*775 FILLER_29_261
*776 FILLER_29_273
*777 FILLER_29_279
*778 FILLER_29_281
*779 FILLER_29_29
*780 FILLER_29_293
*781 FILLER_29_3
*782 FILLER_29_41
*783 FILLER_29_53
*784 FILLER_29_57
*785 FILLER_29_69
*786 FILLER_29_81
*787 FILLER_29_93
*788 FILLER_2_109
*789 FILLER_2_121
*790 FILLER_2_133
*791 FILLER_2_139
*792 FILLER_2_141
*793 FILLER_2_153
*794 FILLER_2_165
*795 FILLER_2_177
*796 FILLER_2_189
*797 FILLER_2_195
*798 FILLER_2_197
*799 FILLER_2_209
*800 FILLER_2_221
*801 FILLER_2_233
*802 FILLER_2_245
*803 FILLER_2_251
*804 FILLER_2_253
*805 FILLER_2_26
*806 FILLER_2_265
*807 FILLER_2_277
*808 FILLER_2_289
*809 FILLER_2_29
*810 FILLER_2_297
*811 FILLER_2_3
*812 FILLER_2_47
*813 FILLER_2_67
*814 FILLER_2_79
*815 FILLER_2_83
*816 FILLER_2_85
*817 FILLER_2_9
*818 FILLER_2_97
*819 FILLER_30_10
*820 FILLER_30_109
*821 FILLER_30_121
*822 FILLER_30_133
*823 FILLER_30_139
*824 FILLER_30_141
*825 FILLER_30_153
*826 FILLER_30_165
*827 FILLER_30_177
*828 FILLER_30_189
*829 FILLER_30_195
*830 FILLER_30_197
*831 FILLER_30_209
*832 FILLER_30_22
*833 FILLER_30_221
*834 FILLER_30_233
*835 FILLER_30_245
*836 FILLER_30_251
*837 FILLER_30_253
*838 FILLER_30_265
*839 FILLER_30_277
*840 FILLER_30_289
*841 FILLER_30_29
*842 FILLER_30_297
*843 FILLER_30_3
*844 FILLER_30_41
*845 FILLER_30_53
*846 FILLER_30_65
*847 FILLER_30_77
*848 FILLER_30_83
*849 FILLER_30_85
*850 FILLER_30_97
*851 FILLER_31_105
*852 FILLER_31_111
*853 FILLER_31_113
*854 FILLER_31_125
*855 FILLER_31_137
*856 FILLER_31_149
*857 FILLER_31_161
*858 FILLER_31_167
*859 FILLER_31_169
*860 FILLER_31_181
*861 FILLER_31_193
*862 FILLER_31_20
*863 FILLER_31_205
*864 FILLER_31_217
*865 FILLER_31_223
*866 FILLER_31_225
*867 FILLER_31_237
*868 FILLER_31_249
*869 FILLER_31_261
*870 FILLER_31_273
*871 FILLER_31_279
*872 FILLER_31_281
*873 FILLER_31_293
*874 FILLER_31_3
*875 FILLER_31_32
*876 FILLER_31_44
*877 FILLER_31_57
*878 FILLER_31_69
*879 FILLER_31_8
*880 FILLER_31_81
*881 FILLER_31_93
*882 FILLER_32_109
*883 FILLER_32_11
*884 FILLER_32_121
*885 FILLER_32_133
*886 FILLER_32_139
*887 FILLER_32_141
*888 FILLER_32_153
*889 FILLER_32_165
*890 FILLER_32_177
*891 FILLER_32_189
*892 FILLER_32_195
*893 FILLER_32_197
*894 FILLER_32_209
*895 FILLER_32_221
*896 FILLER_32_23
*897 FILLER_32_233
*898 FILLER_32_245
*899 FILLER_32_251
*900 FILLER_32_253
*901 FILLER_32_265
*902 FILLER_32_27
*903 FILLER_32_277
*904 FILLER_32_289
*905 FILLER_32_29
*906 FILLER_32_297
*907 FILLER_32_3
*908 FILLER_32_41
*909 FILLER_32_53
*910 FILLER_32_65
*911 FILLER_32_7
*912 FILLER_32_77
*913 FILLER_32_83
*914 FILLER_32_85
*915 FILLER_32_97
*916 FILLER_33_105
*917 FILLER_33_111
*918 FILLER_33_113
*919 FILLER_33_125
*920 FILLER_33_137
*921 FILLER_33_149
*922 FILLER_33_15
*923 FILLER_33_161
*924 FILLER_33_167
*925 FILLER_33_169
*926 FILLER_33_181
*927 FILLER_33_193
*928 FILLER_33_205
*929 FILLER_33_217
*930 FILLER_33_223
*931 FILLER_33_225
*932 FILLER_33_237
*933 FILLER_33_249
*934 FILLER_33_261
*935 FILLER_33_27
*936 FILLER_33_273
*937 FILLER_33_279
*938 FILLER_33_281
*939 FILLER_33_293
*940 FILLER_33_3
*941 FILLER_33_39
*942 FILLER_33_51
*943 FILLER_33_55
*944 FILLER_33_57
*945 FILLER_33_69
*946 FILLER_33_81
*947 FILLER_33_93
*948 FILLER_34_109
*949 FILLER_34_121
*950 FILLER_34_133
*951 FILLER_34_139
*952 FILLER_34_141
*953 FILLER_34_15
*954 FILLER_34_153
*955 FILLER_34_165
*956 FILLER_34_177
*957 FILLER_34_189
*958 FILLER_34_195
*959 FILLER_34_197
*960 FILLER_34_209
*961 FILLER_34_221
*962 FILLER_34_233
*963 FILLER_34_245
*964 FILLER_34_251
*965 FILLER_34_253
*966 FILLER_34_265
*967 FILLER_34_27
*968 FILLER_34_277
*969 FILLER_34_289
*970 FILLER_34_29
*971 FILLER_34_297
*972 FILLER_34_3
*973 FILLER_34_41
*974 FILLER_34_53
*975 FILLER_34_65
*976 FILLER_34_77
*977 FILLER_34_83
*978 FILLER_34_85
*979 FILLER_34_97
*980 FILLER_35_105
*981 FILLER_35_111
*982 FILLER_35_113
*983 FILLER_35_125
*984 FILLER_35_137
*985 FILLER_35_149
*986 FILLER_35_15
*987 FILLER_35_161
*988 FILLER_35_167
*989 FILLER_35_169
*990 FILLER_35_181
*991 FILLER_35_193
*992 FILLER_35_205
*993 FILLER_35_217
*994 FILLER_35_223
*995 FILLER_35_225
*996 FILLER_35_237
*997 FILLER_35_249
*998 FILLER_35_261
*999 FILLER_35_27
*1000 FILLER_35_273
*1001 FILLER_35_279
*1002 FILLER_35_281
*1003 FILLER_35_293
*1004 FILLER_35_3
*1005 FILLER_35_39
*1006 FILLER_35_51
*1007 FILLER_35_55
*1008 FILLER_35_57
*1009 FILLER_35_69
*1010 FILLER_35_81
*1011 FILLER_35_93
*1012 FILLER_36_109
*1013 FILLER_36_121
*1014 FILLER_36_133
*1015 FILLER_36_139
*1016 FILLER_36_141
*1017 FILLER_36_15
*1018 FILLER_36_153
*1019 FILLER_36_165
*1020 FILLER_36_177
*1021 FILLER_36_189
*1022 FILLER_36_195
*1023 FILLER_36_197
*1024 FILLER_36_209
*1025 FILLER_36_221
*1026 FILLER_36_233
*1027 FILLER_36_245
*1028 FILLER_36_251
*1029 FILLER_36_253
*1030 FILLER_36_265
*1031 FILLER_36_27
*1032 FILLER_36_277
*1033 FILLER_36_289
*1034 FILLER_36_29
*1035 FILLER_36_297
*1036 FILLER_36_3
*1037 FILLER_36_41
*1038 FILLER_36_53
*1039 FILLER_36_65
*1040 FILLER_36_77
*1041 FILLER_36_83
*1042 FILLER_36_85
*1043 FILLER_36_97
*1044 FILLER_37_105
*1045 FILLER_37_111
*1046 FILLER_37_113
*1047 FILLER_37_125
*1048 FILLER_37_137
*1049 FILLER_37_149
*1050 FILLER_37_161
*1051 FILLER_37_167
*1052 FILLER_37_169
*1053 FILLER_37_181
*1054 FILLER_37_193
*1055 FILLER_37_205
*1056 FILLER_37_21
*1057 FILLER_37_217
*1058 FILLER_37_223
*1059 FILLER_37_225
*1060 FILLER_37_237
*1061 FILLER_37_249
*1062 FILLER_37_261
*1063 FILLER_37_273
*1064 FILLER_37_279
*1065 FILLER_37_281
*1066 FILLER_37_293
*1067 FILLER_37_3
*1068 FILLER_37_33
*1069 FILLER_37_45
*1070 FILLER_37_53
*1071 FILLER_37_57
*1072 FILLER_37_69
*1073 FILLER_37_81
*1074 FILLER_37_9
*1075 FILLER_37_93
*1076 FILLER_38_10
*1077 FILLER_38_109
*1078 FILLER_38_121
*1079 FILLER_38_133
*1080 FILLER_38_139
*1081 FILLER_38_141
*1082 FILLER_38_153
*1083 FILLER_38_165
*1084 FILLER_38_177
*1085 FILLER_38_189
*1086 FILLER_38_195
*1087 FILLER_38_197
*1088 FILLER_38_209
*1089 FILLER_38_22
*1090 FILLER_38_221
*1091 FILLER_38_233
*1092 FILLER_38_245
*1093 FILLER_38_251
*1094 FILLER_38_253
*1095 FILLER_38_265
*1096 FILLER_38_277
*1097 FILLER_38_289
*1098 FILLER_38_29
*1099 FILLER_38_297
*1100 FILLER_38_3
*1101 FILLER_38_41
*1102 FILLER_38_53
*1103 FILLER_38_65
*1104 FILLER_38_77
*1105 FILLER_38_83
*1106 FILLER_38_85
*1107 FILLER_38_97
*1108 FILLER_39_105
*1109 FILLER_39_111
*1110 FILLER_39_113
*1111 FILLER_39_125
*1112 FILLER_39_137
*1113 FILLER_39_149
*1114 FILLER_39_15
*1115 FILLER_39_161
*1116 FILLER_39_167
*1117 FILLER_39_169
*1118 FILLER_39_181
*1119 FILLER_39_193
*1120 FILLER_39_205
*1121 FILLER_39_217
*1122 FILLER_39_223
*1123 FILLER_39_225
*1124 FILLER_39_237
*1125 FILLER_39_249
*1126 FILLER_39_261
*1127 FILLER_39_27
*1128 FILLER_39_273
*1129 FILLER_39_279
*1130 FILLER_39_281
*1131 FILLER_39_293
*1132 FILLER_39_3
*1133 FILLER_39_39
*1134 FILLER_39_51
*1135 FILLER_39_55
*1136 FILLER_39_57
*1137 FILLER_39_69
*1138 FILLER_39_81
*1139 FILLER_39_93
*1140 FILLER_3_105
*1141 FILLER_3_111
*1142 FILLER_3_113
*1143 FILLER_3_125
*1144 FILLER_3_137
*1145 FILLER_3_149
*1146 FILLER_3_16
*1147 FILLER_3_161
*1148 FILLER_3_167
*1149 FILLER_3_169
*1150 FILLER_3_181
*1151 FILLER_3_193
*1152 FILLER_3_205
*1153 FILLER_3_217
*1154 FILLER_3_223
*1155 FILLER_3_225
*1156 FILLER_3_237
*1157 FILLER_3_249
*1158 FILLER_3_261
*1159 FILLER_3_273
*1160 FILLER_3_279
*1161 FILLER_3_281
*1162 FILLER_3_293
*1163 FILLER_3_3
*1164 FILLER_3_39
*1165 FILLER_3_51
*1166 FILLER_3_55
*1167 FILLER_3_57
*1168 FILLER_3_69
*1169 FILLER_3_8
*1170 FILLER_3_81
*1171 FILLER_3_93
*1172 FILLER_40_109
*1173 FILLER_40_121
*1174 FILLER_40_133
*1175 FILLER_40_139
*1176 FILLER_40_141
*1177 FILLER_40_15
*1178 FILLER_40_153
*1179 FILLER_40_165
*1180 FILLER_40_177
*1181 FILLER_40_189
*1182 FILLER_40_195
*1183 FILLER_40_197
*1184 FILLER_40_209
*1185 FILLER_40_221
*1186 FILLER_40_233
*1187 FILLER_40_245
*1188 FILLER_40_251
*1189 FILLER_40_253
*1190 FILLER_40_265
*1191 FILLER_40_27
*1192 FILLER_40_277
*1193 FILLER_40_289
*1194 FILLER_40_29
*1195 FILLER_40_297
*1196 FILLER_40_3
*1197 FILLER_40_41
*1198 FILLER_40_53
*1199 FILLER_40_65
*1200 FILLER_40_77
*1201 FILLER_40_83
*1202 FILLER_40_85
*1203 FILLER_40_97
*1204 FILLER_41_105
*1205 FILLER_41_111
*1206 FILLER_41_113
*1207 FILLER_41_125
*1208 FILLER_41_137
*1209 FILLER_41_149
*1210 FILLER_41_15
*1211 FILLER_41_161
*1212 FILLER_41_167
*1213 FILLER_41_169
*1214 FILLER_41_181
*1215 FILLER_41_193
*1216 FILLER_41_205
*1217 FILLER_41_217
*1218 FILLER_41_223
*1219 FILLER_41_225
*1220 FILLER_41_237
*1221 FILLER_41_249
*1222 FILLER_41_261
*1223 FILLER_41_27
*1224 FILLER_41_273
*1225 FILLER_41_279
*1226 FILLER_41_281
*1227 FILLER_41_293
*1228 FILLER_41_3
*1229 FILLER_41_39
*1230 FILLER_41_51
*1231 FILLER_41_55
*1232 FILLER_41_57
*1233 FILLER_41_69
*1234 FILLER_41_81
*1235 FILLER_41_93
*1236 FILLER_42_109
*1237 FILLER_42_121
*1238 FILLER_42_133
*1239 FILLER_42_139
*1240 FILLER_42_141
*1241 FILLER_42_15
*1242 FILLER_42_153
*1243 FILLER_42_165
*1244 FILLER_42_177
*1245 FILLER_42_189
*1246 FILLER_42_195
*1247 FILLER_42_197
*1248 FILLER_42_209
*1249 FILLER_42_221
*1250 FILLER_42_233
*1251 FILLER_42_245
*1252 FILLER_42_251
*1253 FILLER_42_253
*1254 FILLER_42_265
*1255 FILLER_42_27
*1256 FILLER_42_277
*1257 FILLER_42_289
*1258 FILLER_42_29
*1259 FILLER_42_297
*1260 FILLER_42_3
*1261 FILLER_42_41
*1262 FILLER_42_53
*1263 FILLER_42_65
*1264 FILLER_42_77
*1265 FILLER_42_83
*1266 FILLER_42_85
*1267 FILLER_42_97
*1268 FILLER_43_105
*1269 FILLER_43_111
*1270 FILLER_43_113
*1271 FILLER_43_125
*1272 FILLER_43_137
*1273 FILLER_43_149
*1274 FILLER_43_15
*1275 FILLER_43_161
*1276 FILLER_43_167
*1277 FILLER_43_169
*1278 FILLER_43_181
*1279 FILLER_43_193
*1280 FILLER_43_205
*1281 FILLER_43_217
*1282 FILLER_43_223
*1283 FILLER_43_225
*1284 FILLER_43_237
*1285 FILLER_43_249
*1286 FILLER_43_261
*1287 FILLER_43_27
*1288 FILLER_43_273
*1289 FILLER_43_279
*1290 FILLER_43_281
*1291 FILLER_43_293
*1292 FILLER_43_3
*1293 FILLER_43_39
*1294 FILLER_43_51
*1295 FILLER_43_55
*1296 FILLER_43_57
*1297 FILLER_43_69
*1298 FILLER_43_81
*1299 FILLER_43_93
*1300 FILLER_44_109
*1301 FILLER_44_121
*1302 FILLER_44_133
*1303 FILLER_44_139
*1304 FILLER_44_141
*1305 FILLER_44_15
*1306 FILLER_44_153
*1307 FILLER_44_165
*1308 FILLER_44_177
*1309 FILLER_44_189
*1310 FILLER_44_195
*1311 FILLER_44_197
*1312 FILLER_44_209
*1313 FILLER_44_221
*1314 FILLER_44_233
*1315 FILLER_44_245
*1316 FILLER_44_251
*1317 FILLER_44_253
*1318 FILLER_44_265
*1319 FILLER_44_27
*1320 FILLER_44_277
*1321 FILLER_44_289
*1322 FILLER_44_29
*1323 FILLER_44_297
*1324 FILLER_44_3
*1325 FILLER_44_41
*1326 FILLER_44_53
*1327 FILLER_44_65
*1328 FILLER_44_77
*1329 FILLER_44_83
*1330 FILLER_44_85
*1331 FILLER_44_97
*1332 FILLER_45_105
*1333 FILLER_45_111
*1334 FILLER_45_113
*1335 FILLER_45_125
*1336 FILLER_45_137
*1337 FILLER_45_149
*1338 FILLER_45_161
*1339 FILLER_45_167
*1340 FILLER_45_169
*1341 FILLER_45_181
*1342 FILLER_45_193
*1343 FILLER_45_20
*1344 FILLER_45_205
*1345 FILLER_45_217
*1346 FILLER_45_223
*1347 FILLER_45_225
*1348 FILLER_45_237
*1349 FILLER_45_249
*1350 FILLER_45_261
*1351 FILLER_45_273
*1352 FILLER_45_279
*1353 FILLER_45_281
*1354 FILLER_45_293
*1355 FILLER_45_3
*1356 FILLER_45_32
*1357 FILLER_45_44
*1358 FILLER_45_57
*1359 FILLER_45_69
*1360 FILLER_45_8
*1361 FILLER_45_81
*1362 FILLER_45_93
*1363 FILLER_46_109
*1364 FILLER_46_121
*1365 FILLER_46_13
*1366 FILLER_46_133
*1367 FILLER_46_139
*1368 FILLER_46_141
*1369 FILLER_46_153
*1370 FILLER_46_165
*1371 FILLER_46_177
*1372 FILLER_46_189
*1373 FILLER_46_195
*1374 FILLER_46_197
*1375 FILLER_46_209
*1376 FILLER_46_221
*1377 FILLER_46_233
*1378 FILLER_46_245
*1379 FILLER_46_25
*1380 FILLER_46_251
*1381 FILLER_46_253
*1382 FILLER_46_265
*1383 FILLER_46_277
*1384 FILLER_46_289
*1385 FILLER_46_29
*1386 FILLER_46_297
*1387 FILLER_46_3
*1388 FILLER_46_41
*1389 FILLER_46_53
*1390 FILLER_46_65
*1391 FILLER_46_77
*1392 FILLER_46_83
*1393 FILLER_46_85
*1394 FILLER_46_9
*1395 FILLER_46_97
*1396 FILLER_47_105
*1397 FILLER_47_111
*1398 FILLER_47_113
*1399 FILLER_47_125
*1400 FILLER_47_137
*1401 FILLER_47_149
*1402 FILLER_47_15
*1403 FILLER_47_161
*1404 FILLER_47_167
*1405 FILLER_47_169
*1406 FILLER_47_181
*1407 FILLER_47_193
*1408 FILLER_47_205
*1409 FILLER_47_217
*1410 FILLER_47_223
*1411 FILLER_47_225
*1412 FILLER_47_237
*1413 FILLER_47_249
*1414 FILLER_47_261
*1415 FILLER_47_27
*1416 FILLER_47_273
*1417 FILLER_47_279
*1418 FILLER_47_281
*1419 FILLER_47_293
*1420 FILLER_47_3
*1421 FILLER_47_39
*1422 FILLER_47_51
*1423 FILLER_47_55
*1424 FILLER_47_57
*1425 FILLER_47_69
*1426 FILLER_47_81
*1427 FILLER_47_93
*1428 FILLER_48_109
*1429 FILLER_48_121
*1430 FILLER_48_133
*1431 FILLER_48_139
*1432 FILLER_48_141
*1433 FILLER_48_15
*1434 FILLER_48_153
*1435 FILLER_48_165
*1436 FILLER_48_177
*1437 FILLER_48_189
*1438 FILLER_48_195
*1439 FILLER_48_197
*1440 FILLER_48_209
*1441 FILLER_48_221
*1442 FILLER_48_233
*1443 FILLER_48_245
*1444 FILLER_48_251
*1445 FILLER_48_253
*1446 FILLER_48_265
*1447 FILLER_48_27
*1448 FILLER_48_277
*1449 FILLER_48_289
*1450 FILLER_48_29
*1451 FILLER_48_297
*1452 FILLER_48_3
*1453 FILLER_48_41
*1454 FILLER_48_53
*1455 FILLER_48_65
*1456 FILLER_48_77
*1457 FILLER_48_83
*1458 FILLER_48_85
*1459 FILLER_48_97
*1460 FILLER_49_105
*1461 FILLER_49_111
*1462 FILLER_49_113
*1463 FILLER_49_125
*1464 FILLER_49_137
*1465 FILLER_49_149
*1466 FILLER_49_15
*1467 FILLER_49_161
*1468 FILLER_49_167
*1469 FILLER_49_169
*1470 FILLER_49_181
*1471 FILLER_49_193
*1472 FILLER_49_205
*1473 FILLER_49_217
*1474 FILLER_49_223
*1475 FILLER_49_225
*1476 FILLER_49_237
*1477 FILLER_49_249
*1478 FILLER_49_261
*1479 FILLER_49_27
*1480 FILLER_49_273
*1481 FILLER_49_279
*1482 FILLER_49_281
*1483 FILLER_49_293
*1484 FILLER_49_3
*1485 FILLER_49_39
*1486 FILLER_49_51
*1487 FILLER_49_55
*1488 FILLER_49_57
*1489 FILLER_49_69
*1490 FILLER_49_81
*1491 FILLER_49_93
*1492 FILLER_4_109
*1493 FILLER_4_121
*1494 FILLER_4_133
*1495 FILLER_4_139
*1496 FILLER_4_141
*1497 FILLER_4_153
*1498 FILLER_4_165
*1499 FILLER_4_177
*1500 FILLER_4_189
*1501 FILLER_4_195
*1502 FILLER_4_197
*1503 FILLER_4_209
*1504 FILLER_4_21
*1505 FILLER_4_221
*1506 FILLER_4_233
*1507 FILLER_4_245
*1508 FILLER_4_251
*1509 FILLER_4_253
*1510 FILLER_4_265
*1511 FILLER_4_27
*1512 FILLER_4_277
*1513 FILLER_4_289
*1514 FILLER_4_29
*1515 FILLER_4_297
*1516 FILLER_4_3
*1517 FILLER_4_47
*1518 FILLER_4_67
*1519 FILLER_4_79
*1520 FILLER_4_83
*1521 FILLER_4_85
*1522 FILLER_4_97
*1523 FILLER_50_109
*1524 FILLER_50_121
*1525 FILLER_50_133
*1526 FILLER_50_139
*1527 FILLER_50_141
*1528 FILLER_50_153
*1529 FILLER_50_165
*1530 FILLER_50_177
*1531 FILLER_50_189
*1532 FILLER_50_195
*1533 FILLER_50_197
*1534 FILLER_50_20
*1535 FILLER_50_209
*1536 FILLER_50_221
*1537 FILLER_50_233
*1538 FILLER_50_245
*1539 FILLER_50_251
*1540 FILLER_50_253
*1541 FILLER_50_265
*1542 FILLER_50_277
*1543 FILLER_50_289
*1544 FILLER_50_29
*1545 FILLER_50_297
*1546 FILLER_50_3
*1547 FILLER_50_41
*1548 FILLER_50_53
*1549 FILLER_50_65
*1550 FILLER_50_77
*1551 FILLER_50_8
*1552 FILLER_50_83
*1553 FILLER_50_85
*1554 FILLER_50_97
*1555 FILLER_51_105
*1556 FILLER_51_111
*1557 FILLER_51_113
*1558 FILLER_51_125
*1559 FILLER_51_137
*1560 FILLER_51_149
*1561 FILLER_51_15
*1562 FILLER_51_161
*1563 FILLER_51_167
*1564 FILLER_51_169
*1565 FILLER_51_181
*1566 FILLER_51_193
*1567 FILLER_51_205
*1568 FILLER_51_217
*1569 FILLER_51_223
*1570 FILLER_51_225
*1571 FILLER_51_237
*1572 FILLER_51_249
*1573 FILLER_51_261
*1574 FILLER_51_27
*1575 FILLER_51_273
*1576 FILLER_51_279
*1577 FILLER_51_281
*1578 FILLER_51_293
*1579 FILLER_51_3
*1580 FILLER_51_39
*1581 FILLER_51_51
*1582 FILLER_51_55
*1583 FILLER_51_57
*1584 FILLER_51_69
*1585 FILLER_51_81
*1586 FILLER_51_93
*1587 FILLER_52_109
*1588 FILLER_52_121
*1589 FILLER_52_133
*1590 FILLER_52_139
*1591 FILLER_52_141
*1592 FILLER_52_15
*1593 FILLER_52_153
*1594 FILLER_52_165
*1595 FILLER_52_177
*1596 FILLER_52_189
*1597 FILLER_52_195
*1598 FILLER_52_197
*1599 FILLER_52_209
*1600 FILLER_52_221