*SPEF "ieee 1481-1999"
*DESIGN "user_module_341516949939814994"
*DATE "11:11:11 Fri 11 11, 1111"
*VENDOR "OpenRCX"
*PROGRAM "Parallel Extraction"
*VERSION "1.0"
*DESIGN_FLOW "NAME_SCOPE LOCAL" "PIN_CAP NONE"
*DIVIDER /
*DELIMITER :
*BUS_DELIMITER []
*T_UNIT 1 NS
*C_UNIT 1 PF
*R_UNIT 1 OHM
*L_UNIT 1 HENRY

*NAME_MAP
*1 io_in[0]
*2 io_in[1]
*3 io_in[2]
*4 io_in[3]
*5 io_in[4]
*6 io_in[5]
*7 io_in[6]
*8 io_in[7]
*9 io_out[0]
*10 net2
*11 net3
*12 net4
*13 net5
*14 net6
*15 net7
*16 net8
*19 _00_
*20 _01_
*21 _02_
*22 _03_
*23 _04_
*24 _05_
*25 _06_
*26 _07_
*27 _08_
*28 _09_
*29 _10_
*30 _11_
*31 _12_
*32 clknet_0_io_in[0]
*33 clknet_2_0__leaf_io_in[0]
*34 clknet_2_1__leaf_io_in[0]
*35 clknet_2_2__leaf_io_in[0]
*36 clknet_2_3__leaf_io_in[0]
*37 flipflop10\.d
*38 flipflop10\.q
*39 flipflop11\.q
*40 flipflop12\.q
*41 flipflop13\.q
*42 flipflop14\.q
*43 flipflop15\.q
*44 flipflop16\.q
*45 flipflop17\.q
*46 flipflop18\.q
*47 flipflop19\.q
*48 flipflop2\.q
*49 flipflop20\.q
*50 flipflop21\.q
*51 flipflop22\.q
*52 flipflop23\.q
*53 flipflop24\.q
*54 flipflop25\.q
*55 flipflop26\.q
*56 flipflop27\.q
*57 flipflop28\.q
*58 flipflop29\.q
*59 flipflop3\.q
*60 flipflop30\.q
*61 flipflop31\.q
*62 flipflop32\.q
*63 flipflop33\.q
*64 flipflop34\.q
*65 flipflop35\.q
*66 flipflop36\.q
*67 flipflop37\.q
*68 flipflop38\.q
*69 flipflop39\.q
*70 flipflop4\.q
*71 flipflop40\.q
*72 flipflop41\.q
*73 flipflop5\.q
*74 flipflop6\.q
*75 flipflop7\.q
*76 flipflop8\.q
*77 gate124\.out
*78 net1
*79 net10
*80 net11
*81 net12
*82 net13
*83 net14
*84 net15
*85 net16
*86 net17
*87 net18
*88 net19
*89 net20
*90 net21
*91 net22
*92 net23
*93 net24
*94 net25
*95 net26
*96 net27
*97 net28
*98 net29
*99 net30
*100 net31
*101 net32
*102 net33
*103 net9
*104 FILLER_0_109
*105 FILLER_0_113
*106 FILLER_0_125
*107 FILLER_0_137
*108 FILLER_0_141
*109 FILLER_0_153
*110 FILLER_0_165
*111 FILLER_0_169
*112 FILLER_0_181
*113 FILLER_0_193
*114 FILLER_0_197
*115 FILLER_0_209
*116 FILLER_0_221
*117 FILLER_0_225
*118 FILLER_0_237
*119 FILLER_0_249
*120 FILLER_0_253
*121 FILLER_0_26
*122 FILLER_0_265
*123 FILLER_0_277
*124 FILLER_0_281
*125 FILLER_0_29
*126 FILLER_0_293
*127 FILLER_0_3
*128 FILLER_0_34
*129 FILLER_0_54
*130 FILLER_0_57
*131 FILLER_0_75
*132 FILLER_0_83
*133 FILLER_0_85
*134 FILLER_0_9
*135 FILLER_0_97
*136 FILLER_10_109
*137 FILLER_10_121
*138 FILLER_10_133
*139 FILLER_10_139
*140 FILLER_10_141
*141 FILLER_10_153
*142 FILLER_10_165
*143 FILLER_10_177
*144 FILLER_10_189
*145 FILLER_10_195
*146 FILLER_10_197
*147 FILLER_10_209
*148 FILLER_10_221
*149 FILLER_10_233
*150 FILLER_10_24
*151 FILLER_10_245
*152 FILLER_10_251
*153 FILLER_10_253
*154 FILLER_10_265
*155 FILLER_10_277
*156 FILLER_10_289
*157 FILLER_10_29
*158 FILLER_10_297
*159 FILLER_10_3
*160 FILLER_10_39
*161 FILLER_10_47
*162 FILLER_10_64
*163 FILLER_10_7
*164 FILLER_10_76
*165 FILLER_10_85
*166 FILLER_10_97
*167 FILLER_11_111
*168 FILLER_11_113
*169 FILLER_11_125
*170 FILLER_11_137
*171 FILLER_11_14
*172 FILLER_11_149
*173 FILLER_11_161
*174 FILLER_11_167
*175 FILLER_11_169
*176 FILLER_11_181
*177 FILLER_11_193
*178 FILLER_11_205
*179 FILLER_11_217
*180 FILLER_11_223
*181 FILLER_11_225
*182 FILLER_11_237
*183 FILLER_11_249
*184 FILLER_11_261
*185 FILLER_11_273
*186 FILLER_11_279
*187 FILLER_11_281
*188 FILLER_11_293
*189 FILLER_11_3
*190 FILLER_11_34
*191 FILLER_11_54
*192 FILLER_11_57
*193 FILLER_11_75
*194 FILLER_11_87
*195 FILLER_11_99
*196 FILLER_12_109
*197 FILLER_12_121
*198 FILLER_12_133
*199 FILLER_12_139
*200 FILLER_12_141
*201 FILLER_12_153
*202 FILLER_12_165
*203 FILLER_12_177
*204 FILLER_12_189
*205 FILLER_12_195
*206 FILLER_12_197
*207 FILLER_12_209
*208 FILLER_12_221
*209 FILLER_12_233
*210 FILLER_12_245
*211 FILLER_12_25
*212 FILLER_12_251
*213 FILLER_12_253
*214 FILLER_12_265
*215 FILLER_12_277
*216 FILLER_12_289
*217 FILLER_12_29
*218 FILLER_12_297
*219 FILLER_12_3
*220 FILLER_12_41
*221 FILLER_12_65
*222 FILLER_12_77
*223 FILLER_12_83
*224 FILLER_12_85
*225 FILLER_12_97
*226 FILLER_13_103
*227 FILLER_13_111
*228 FILLER_13_113
*229 FILLER_13_125
*230 FILLER_13_13
*231 FILLER_13_137
*232 FILLER_13_149
*233 FILLER_13_161
*234 FILLER_13_167
*235 FILLER_13_169
*236 FILLER_13_181
*237 FILLER_13_193
*238 FILLER_13_205
*239 FILLER_13_217
*240 FILLER_13_223
*241 FILLER_13_225
*242 FILLER_13_237
*243 FILLER_13_249
*244 FILLER_13_261
*245 FILLER_13_273
*246 FILLER_13_279
*247 FILLER_13_281
*248 FILLER_13_293
*249 FILLER_13_3
*250 FILLER_13_33
*251 FILLER_13_37
*252 FILLER_13_54
*253 FILLER_13_57
*254 FILLER_13_67
*255 FILLER_13_79
*256 FILLER_13_91
*257 FILLER_14_109
*258 FILLER_14_121
*259 FILLER_14_133
*260 FILLER_14_139
*261 FILLER_14_141
*262 FILLER_14_153
*263 FILLER_14_165
*264 FILLER_14_177
*265 FILLER_14_189
*266 FILLER_14_195
*267 FILLER_14_197
*268 FILLER_14_209
*269 FILLER_14_221
*270 FILLER_14_233
*271 FILLER_14_24
*272 FILLER_14_245
*273 FILLER_14_251
*274 FILLER_14_253
*275 FILLER_14_265
*276 FILLER_14_277
*277 FILLER_14_289
*278 FILLER_14_29
*279 FILLER_14_297
*280 FILLER_14_3
*281 FILLER_14_43
*282 FILLER_14_63
*283 FILLER_14_7
*284 FILLER_14_75
*285 FILLER_14_83
*286 FILLER_14_85
*287 FILLER_14_97
*288 FILLER_15_111
*289 FILLER_15_113
*290 FILLER_15_125
*291 FILLER_15_13
*292 FILLER_15_137
*293 FILLER_15_149
*294 FILLER_15_161
*295 FILLER_15_167
*296 FILLER_15_169
*297 FILLER_15_181
*298 FILLER_15_193
*299 FILLER_15_205
*300 FILLER_15_217
*301 FILLER_15_223
*302 FILLER_15_225
*303 FILLER_15_237
*304 FILLER_15_249
*305 FILLER_15_261
*306 FILLER_15_273
*307 FILLER_15_279
*308 FILLER_15_281
*309 FILLER_15_293
*310 FILLER_15_3
*311 FILLER_15_33
*312 FILLER_15_37
*313 FILLER_15_54
*314 FILLER_15_57
*315 FILLER_15_75
*316 FILLER_15_87
*317 FILLER_15_99
*318 FILLER_16_109
*319 FILLER_16_121
*320 FILLER_16_133
*321 FILLER_16_139
*322 FILLER_16_141
*323 FILLER_16_153
*324 FILLER_16_165
*325 FILLER_16_177
*326 FILLER_16_189
*327 FILLER_16_195
*328 FILLER_16_197
*329 FILLER_16_209
*330 FILLER_16_221
*331 FILLER_16_233
*332 FILLER_16_24
*333 FILLER_16_245
*334 FILLER_16_251
*335 FILLER_16_253
*336 FILLER_16_265
*337 FILLER_16_277
*338 FILLER_16_289
*339 FILLER_16_29
*340 FILLER_16_297
*341 FILLER_16_3
*342 FILLER_16_39
*343 FILLER_16_63
*344 FILLER_16_7
*345 FILLER_16_75
*346 FILLER_16_83
*347 FILLER_16_85
*348 FILLER_16_97
*349 FILLER_17_105
*350 FILLER_17_111
*351 FILLER_17_113
*352 FILLER_17_125
*353 FILLER_17_13
*354 FILLER_17_137
*355 FILLER_17_149
*356 FILLER_17_161
*357 FILLER_17_167
*358 FILLER_17_169
*359 FILLER_17_181
*360 FILLER_17_193
*361 FILLER_17_205
*362 FILLER_17_217
*363 FILLER_17_223
*364 FILLER_17_225
*365 FILLER_17_237
*366 FILLER_17_249
*367 FILLER_17_261
*368 FILLER_17_273
*369 FILLER_17_279
*370 FILLER_17_281
*371 FILLER_17_293
*372 FILLER_17_3
*373 FILLER_17_33
*374 FILLER_17_45
*375 FILLER_17_54
*376 FILLER_17_57
*377 FILLER_17_69
*378 FILLER_17_81
*379 FILLER_17_93
*380 FILLER_18_109
*381 FILLER_18_121
*382 FILLER_18_133
*383 FILLER_18_139
*384 FILLER_18_141
*385 FILLER_18_153
*386 FILLER_18_165
*387 FILLER_18_177
*388 FILLER_18_189
*389 FILLER_18_195
*390 FILLER_18_197
*391 FILLER_18_209
*392 FILLER_18_221
*393 FILLER_18_23
*394 FILLER_18_233
*395 FILLER_18_245
*396 FILLER_18_251
*397 FILLER_18_253
*398 FILLER_18_265
*399 FILLER_18_27
*400 FILLER_18_277
*401 FILLER_18_289
*402 FILLER_18_29
*403 FILLER_18_297
*404 FILLER_18_3
*405 FILLER_18_39
*406 FILLER_18_51
*407 FILLER_18_63
*408 FILLER_18_75
*409 FILLER_18_83
*410 FILLER_18_85
*411 FILLER_18_97
*412 FILLER_19_108
*413 FILLER_19_113
*414 FILLER_19_125
*415 FILLER_19_137
*416 FILLER_19_149
*417 FILLER_19_161
*418 FILLER_19_167
*419 FILLER_19_169
*420 FILLER_19_18
*421 FILLER_19_181
*422 FILLER_19_193
*423 FILLER_19_205
*424 FILLER_19_217
*425 FILLER_19_223
*426 FILLER_19_225
*427 FILLER_19_237
*428 FILLER_19_249
*429 FILLER_19_261
*430 FILLER_19_273
*431 FILLER_19_279
*432 FILLER_19_281
*433 FILLER_19_293
*434 FILLER_19_3
*435 FILLER_19_32
*436 FILLER_19_46
*437 FILLER_19_54
*438 FILLER_19_57
*439 FILLER_19_63
*440 FILLER_19_7
*441 FILLER_19_72
*442 FILLER_19_84
*443 FILLER_19_96
*444 FILLER_1_108
*445 FILLER_1_113
*446 FILLER_1_125
*447 FILLER_1_137
*448 FILLER_1_14
*449 FILLER_1_149
*450 FILLER_1_161
*451 FILLER_1_167
*452 FILLER_1_169
*453 FILLER_1_181
*454 FILLER_1_193
*455 FILLER_1_205
*456 FILLER_1_217
*457 FILLER_1_223
*458 FILLER_1_225
*459 FILLER_1_237
*460 FILLER_1_249
*461 FILLER_1_261
*462 FILLER_1_273
*463 FILLER_1_279
*464 FILLER_1_281
*465 FILLER_1_293
*466 FILLER_1_3
*467 FILLER_1_34
*468 FILLER_1_54
*469 FILLER_1_57
*470 FILLER_1_76
*471 FILLER_1_96
*472 FILLER_20_109
*473 FILLER_20_121
*474 FILLER_20_133
*475 FILLER_20_139
*476 FILLER_20_141
*477 FILLER_20_153
*478 FILLER_20_165
*479 FILLER_20_177
*480 FILLER_20_18
*481 FILLER_20_189
*482 FILLER_20_195
*483 FILLER_20_197
*484 FILLER_20_209
*485 FILLER_20_221
*486 FILLER_20_233
*487 FILLER_20_245
*488 FILLER_20_251
*489 FILLER_20_253
*490 FILLER_20_26
*491 FILLER_20_265
*492 FILLER_20_277
*493 FILLER_20_289
*494 FILLER_20_29
*495 FILLER_20_297
*496 FILLER_20_3
*497 FILLER_20_38
*498 FILLER_20_50
*499 FILLER_20_62
*500 FILLER_20_7
*501 FILLER_20_74
*502 FILLER_20_82
*503 FILLER_20_85
*504 FILLER_20_97
*505 FILLER_21_105
*506 FILLER_21_111
*507 FILLER_21_113
*508 FILLER_21_125
*509 FILLER_21_137
*510 FILLER_21_149
*511 FILLER_21_161
*512 FILLER_21_167
*513 FILLER_21_169
*514 FILLER_21_181
*515 FILLER_21_19
*516 FILLER_21_193
*517 FILLER_21_205
*518 FILLER_21_217
*519 FILLER_21_223
*520 FILLER_21_225
*521 FILLER_21_237
*522 FILLER_21_249
*523 FILLER_21_25
*524 FILLER_21_261
*525 FILLER_21_273
*526 FILLER_21_279
*527 FILLER_21_281
*528 FILLER_21_293
*529 FILLER_21_3
*530 FILLER_21_36
*531 FILLER_21_47
*532 FILLER_21_55
*533 FILLER_21_57
*534 FILLER_21_69
*535 FILLER_21_81
*536 FILLER_21_93
*537 FILLER_22_109
*538 FILLER_22_121
*539 FILLER_22_133
*540 FILLER_22_139
*541 FILLER_22_141
*542 FILLER_22_153
*543 FILLER_22_165
*544 FILLER_22_17
*545 FILLER_22_177
*546 FILLER_22_189
*547 FILLER_22_195
*548 FILLER_22_197
*549 FILLER_22_209
*550 FILLER_22_221
*551 FILLER_22_233
*552 FILLER_22_245
*553 FILLER_22_25
*554 FILLER_22_251
*555 FILLER_22_253
*556 FILLER_22_265
*557 FILLER_22_277
*558 FILLER_22_289
*559 FILLER_22_29
*560 FILLER_22_297
*561 FILLER_22_3
*562 FILLER_22_41
*563 FILLER_22_47
*564 FILLER_22_53
*565 FILLER_22_65
*566 FILLER_22_77
*567 FILLER_22_83
*568 FILLER_22_85
*569 FILLER_22_97
*570 FILLER_23_105
*571 FILLER_23_111
*572 FILLER_23_113
*573 FILLER_23_125
*574 FILLER_23_137
*575 FILLER_23_149
*576 FILLER_23_15
*577 FILLER_23_161
*578 FILLER_23_167
*579 FILLER_23_169
*580 FILLER_23_181
*581 FILLER_23_193
*582 FILLER_23_205
*583 FILLER_23_217
*584 FILLER_23_223
*585 FILLER_23_225
*586 FILLER_23_237
*587 FILLER_23_249
*588 FILLER_23_261
*589 FILLER_23_27
*590 FILLER_23_273
*591 FILLER_23_279
*592 FILLER_23_281
*593 FILLER_23_293
*594 FILLER_23_3
*595 FILLER_23_34
*596 FILLER_23_54
*597 FILLER_23_57
*598 FILLER_23_69
*599 FILLER_23_81
*600 FILLER_23_93
*601 FILLER_24_109
*602 FILLER_24_121
*603 FILLER_24_133
*604 FILLER_24_139
*605 FILLER_24_141
*606 FILLER_24_15
*607 FILLER_24_153
*608 FILLER_24_165
*609 FILLER_24_177
*610 FILLER_24_189
*611 FILLER_24_195
*612 FILLER_24_197
*613 FILLER_24_209
*614 FILLER_24_221
*615 FILLER_24_233
*616 FILLER_24_245
*617 FILLER_24_251
*618 FILLER_24_253
*619 FILLER_24_265
*620 FILLER_24_27
*621 FILLER_24_277
*622 FILLER_24_289
*623 FILLER_24_29
*624 FILLER_24_297
*625 FILLER_24_3
*626 FILLER_24_41
*627 FILLER_24_53
*628 FILLER_24_65
*629 FILLER_24_77
*630 FILLER_24_83
*631 FILLER_24_85
*632 FILLER_24_97
*633 FILLER_25_105
*634 FILLER_25_111
*635 FILLER_25_113
*636 FILLER_25_125
*637 FILLER_25_137
*638 FILLER_25_149
*639 FILLER_25_15
*640 FILLER_25_161
*641 FILLER_25_167
*642 FILLER_25_169
*643 FILLER_25_181
*644 FILLER_25_193
*645 FILLER_25_205
*646 FILLER_25_217
*647 FILLER_25_223
*648 FILLER_25_225
*649 FILLER_25_237
*650 FILLER_25_249
*651 FILLER_25_261
*652 FILLER_25_27
*653 FILLER_25_273
*654 FILLER_25_279
*655 FILLER_25_281
*656 FILLER_25_293
*657 FILLER_25_3
*658 FILLER_25_39
*659 FILLER_25_51
*660 FILLER_25_55
*661 FILLER_25_57
*662 FILLER_25_69
*663 FILLER_25_81
*664 FILLER_25_93
*665 FILLER_26_109
*666 FILLER_26_121
*667 FILLER_26_133
*668 FILLER_26_139
*669 FILLER_26_141
*670 FILLER_26_15
*671 FILLER_26_153
*672 FILLER_26_165
*673 FILLER_26_177
*674 FILLER_26_189
*675 FILLER_26_195
*676 FILLER_26_197
*677 FILLER_26_209
*678 FILLER_26_221
*679 FILLER_26_233
*680 FILLER_26_245
*681 FILLER_26_251
*682 FILLER_26_253
*683 FILLER_26_265
*684 FILLER_26_27
*685 FILLER_26_277
*686 FILLER_26_289
*687 FILLER_26_29
*688 FILLER_26_297
*689 FILLER_26_3
*690 FILLER_26_41
*691 FILLER_26_53
*692 FILLER_26_65
*693 FILLER_26_77
*694 FILLER_26_83
*695 FILLER_26_85
*696 FILLER_26_97
*697 FILLER_27_105
*698 FILLER_27_111
*699 FILLER_27_113
*700 FILLER_27_125
*701 FILLER_27_137
*702 FILLER_27_149
*703 FILLER_27_15
*704 FILLER_27_161
*705 FILLER_27_167
*706 FILLER_27_169
*707 FILLER_27_181
*708 FILLER_27_193
*709 FILLER_27_205
*710 FILLER_27_217
*711 FILLER_27_223
*712 FILLER_27_225
*713 FILLER_27_237
*714 FILLER_27_249
*715 FILLER_27_261
*716 FILLER_27_27
*717 FILLER_27_273
*718 FILLER_27_279
*719 FILLER_27_281
*720 FILLER_27_293
*721 FILLER_27_3
*722 FILLER_27_39
*723 FILLER_27_51
*724 FILLER_27_55
*725 FILLER_27_57
*726 FILLER_27_69
*727 FILLER_27_81
*728 FILLER_27_93
*729 FILLER_28_109
*730 FILLER_28_121
*731 FILLER_28_133
*732 FILLER_28_139
*733 FILLER_28_141
*734 FILLER_28_15
*735 FILLER_28_153
*736 FILLER_28_165
*737 FILLER_28_177
*738 FILLER_28_189
*739 FILLER_28_195
*740 FILLER_28_197
*741 FILLER_28_209
*742 FILLER_28_221
*743 FILLER_28_233
*744 FILLER_28_245
*745 FILLER_28_251
*746 FILLER_28_253
*747 FILLER_28_265
*748 FILLER_28_27
*749 FILLER_28_277
*750 FILLER_28_289
*751 FILLER_28_29
*752 FILLER_28_297
*753 FILLER_28_3
*754 FILLER_28_41
*755 FILLER_28_53
*756 FILLER_28_65
*757 FILLER_28_77
*758 FILLER_28_83
*759 FILLER_28_85
*760 FILLER_28_97
*761 FILLER_29_105
*762 FILLER_29_111
*763 FILLER_29_113
*764 FILLER_29_125
*765 FILLER_29_137
*766 FILLER_29_149
*767 FILLER_29_15
*768 FILLER_29_161
*769 FILLER_29_167
*770 FILLER_29_169
*771 FILLER_29_181
*772 FILLER_29_193
*773 FILLER_29_205
*774 FILLER_29_217
*775 FILLER_29_223
*776 FILLER_29_225
*777 FILLER_29_237
*778 FILLER_29_249
*779 FILLER_29_261
*780 FILLER_29_27
*781 FILLER_29_273
*782 FILLER_29_279
*783 FILLER_29_281
*784 FILLER_29_293
*785 FILLER_29_3
*786 FILLER_29_39
*787 FILLER_29_51
*788 FILLER_29_55
*789 FILLER_29_57
*790 FILLER_29_69
*791 FILLER_29_81
*792 FILLER_29_93
*793 FILLER_2_109
*794 FILLER_2_121
*795 FILLER_2_133
*796 FILLER_2_139
*797 FILLER_2_141
*798 FILLER_2_153
*799 FILLER_2_165
*800 FILLER_2_177
*801 FILLER_2_189
*802 FILLER_2_195
*803 FILLER_2_197
*804 FILLER_2_209
*805 FILLER_2_221
*806 FILLER_2_233
*807 FILLER_2_245
*808 FILLER_2_251
*809 FILLER_2_253
*810 FILLER_2_26
*811 FILLER_2_265
*812 FILLER_2_277
*813 FILLER_2_289
*814 FILLER_2_29
*815 FILLER_2_297
*816 FILLER_2_3
*817 FILLER_2_41
*818 FILLER_2_65
*819 FILLER_2_77
*820 FILLER_2_83
*821 FILLER_2_85
*822 FILLER_2_9
*823 FILLER_2_97
*824 FILLER_30_109
*825 FILLER_30_121
*826 FILLER_30_133
*827 FILLER_30_139
*828 FILLER_30_141
*829 FILLER_30_15
*830 FILLER_30_153
*831 FILLER_30_165
*832 FILLER_30_177
*833 FILLER_30_189
*834 FILLER_30_195
*835 FILLER_30_197
*836 FILLER_30_209
*837 FILLER_30_221
*838 FILLER_30_233
*839 FILLER_30_245
*840 FILLER_30_251
*841 FILLER_30_253
*842 FILLER_30_265
*843 FILLER_30_27
*844 FILLER_30_277
*845 FILLER_30_289
*846 FILLER_30_29
*847 FILLER_30_297
*848 FILLER_30_3
*849 FILLER_30_41
*850 FILLER_30_53
*851 FILLER_30_65
*852 FILLER_30_77
*853 FILLER_30_83
*854 FILLER_30_85
*855 FILLER_30_97
*856 FILLER_31_105
*857 FILLER_31_111
*858 FILLER_31_113
*859 FILLER_31_125
*860 FILLER_31_137
*861 FILLER_31_149
*862 FILLER_31_15
*863 FILLER_31_161
*864 FILLER_31_167
*865 FILLER_31_169
*866 FILLER_31_181
*867 FILLER_31_193
*868 FILLER_31_205
*869 FILLER_31_217
*870 FILLER_31_223
*871 FILLER_31_225
*872 FILLER_31_237
*873 FILLER_31_249
*874 FILLER_31_261
*875 FILLER_31_27
*876 FILLER_31_273
*877 FILLER_31_279
*878 FILLER_31_281
*879 FILLER_31_293
*880 FILLER_31_3
*881 FILLER_31_39
*882 FILLER_31_51
*883 FILLER_31_55
*884 FILLER_31_57
*885 FILLER_31_69
*886 FILLER_31_81
*887 FILLER_31_93
*888 FILLER_32_109
*889 FILLER_32_121
*890 FILLER_32_133
*891 FILLER_32_139
*892 FILLER_32_141
*893 FILLER_32_15
*894 FILLER_32_153
*895 FILLER_32_165
*896 FILLER_32_177
*897 FILLER_32_189
*898 FILLER_32_195
*899 FILLER_32_197
*900 FILLER_32_209
*901 FILLER_32_221
*902 FILLER_32_233
*903 FILLER_32_245
*904 FILLER_32_251
*905 FILLER_32_253
*906 FILLER_32_265
*907 FILLER_32_27
*908 FILLER_32_277
*909 FILLER_32_289
*910 FILLER_32_29
*911 FILLER_32_297
*912 FILLER_32_3
*913 FILLER_32_41
*914 FILLER_32_53
*915 FILLER_32_65
*916 FILLER_32_77
*917 FILLER_32_83
*918 FILLER_32_85
*919 FILLER_32_97
*920 FILLER_33_105
*921 FILLER_33_111
*922 FILLER_33_113
*923 FILLER_33_125
*924 FILLER_33_137
*925 FILLER_33_149
*926 FILLER_33_15
*927 FILLER_33_161
*928 FILLER_33_167
*929 FILLER_33_169
*930 FILLER_33_181
*931 FILLER_33_193
*932 FILLER_33_205
*933 FILLER_33_217
*934 FILLER_33_223
*935 FILLER_33_225
*936 FILLER_33_237
*937 FILLER_33_249
*938 FILLER_33_261
*939 FILLER_33_27
*940 FILLER_33_273
*941 FILLER_33_279
*942 FILLER_33_281
*943 FILLER_33_293
*944 FILLER_33_3
*945 FILLER_33_39
*946 FILLER_33_51
*947 FILLER_33_55
*948 FILLER_33_57
*949 FILLER_33_69
*950 FILLER_33_81
*951 FILLER_33_93
*952 FILLER_34_109
*953 FILLER_34_121
*954 FILLER_34_133
*955 FILLER_34_139
*956 FILLER_34_141
*957 FILLER_34_15
*958 FILLER_34_153
*959 FILLER_34_165
*960 FILLER_34_177
*961 FILLER_34_189
*962 FILLER_34_195
*963 FILLER_34_197
*964 FILLER_34_209
*965 FILLER_34_221
*966 FILLER_34_233
*967 FILLER_34_245
*968 FILLER_34_251
*969 FILLER_34_253
*970 FILLER_34_265
*971 FILLER_34_27
*972 FILLER_34_277
*973 FILLER_34_289
*974 FILLER_34_29
*975 FILLER_34_297
*976 FILLER_34_3
*977 FILLER_34_41
*978 FILLER_34_53
*979 FILLER_34_65
*980 FILLER_34_77
*981 FILLER_34_83
*982 FILLER_34_85
*983 FILLER_34_97
*984 FILLER_35_105
*985 FILLER_35_111
*986 FILLER_35_113
*987 FILLER_35_125
*988 FILLER_35_137
*989 FILLER_35_149
*990 FILLER_35_161
*991 FILLER_35_167
*992 FILLER_35_169
*993 FILLER_35_181
*994 FILLER_35_193
*995 FILLER_35_20
*996 FILLER_35_205
*997 FILLER_35_217
*998 FILLER_35_223
*999 FILLER_35_225
*1000 FILLER_35_237
*1001 FILLER_35_249
*1002 FILLER_35_261
*1003 FILLER_35_273
*1004 FILLER_35_279
*1005 FILLER_35_281
*1006 FILLER_35_293
*1007 FILLER_35_3
*1008 FILLER_35_32
*1009 FILLER_35_44
*1010 FILLER_35_57
*1011 FILLER_35_69
*1012 FILLER_35_8
*1013 FILLER_35_81
*1014 FILLER_35_93
*1015 FILLER_36_109
*1016 FILLER_36_121
*1017 FILLER_36_133
*1018 FILLER_36_139
*1019 FILLER_36_141
*1020 FILLER_36_15
*1021 FILLER_36_153
*1022 FILLER_36_165
*1023 FILLER_36_177
*1024 FILLER_36_189
*1025 FILLER_36_195
*1026 FILLER_36_197
*1027 FILLER_36_209
*1028 FILLER_36_221
*1029 FILLER_36_233
*1030 FILLER_36_245
*1031 FILLER_36_251
*1032 FILLER_36_253
*1033 FILLER_36_265
*1034 FILLER_36_27
*1035 FILLER_36_277
*1036 FILLER_36_289
*1037 FILLER_36_29
*1038 FILLER_36_297
*1039 FILLER_36_3
*1040 FILLER_36_41
*1041 FILLER_36_53
*1042 FILLER_36_65
*1043 FILLER_36_77
*1044 FILLER_36_83
*1045 FILLER_36_85
*1046 FILLER_36_97
*1047 FILLER_37_105
*1048 FILLER_37_111
*1049 FILLER_37_113
*1050 FILLER_37_125
*1051 FILLER_37_137
*1052 FILLER_37_149
*1053 FILLER_37_15
*1054 FILLER_37_161
*1055 FILLER_37_167
*1056 FILLER_37_169
*1057 FILLER_37_181
*1058 FILLER_37_193
*1059 FILLER_37_205
*1060 FILLER_37_217
*1061 FILLER_37_223
*1062 FILLER_37_225
*1063 FILLER_37_237
*1064 FILLER_37_249
*1065 FILLER_37_261
*1066 FILLER_37_27
*1067 FILLER_37_273
*1068 FILLER_37_279
*1069 FILLER_37_281
*1070 FILLER_37_293
*1071 FILLER_37_3
*1072 FILLER_37_39
*1073 FILLER_37_51
*1074 FILLER_37_55
*1075 FILLER_37_57
*1076 FILLER_37_69
*1077 FILLER_37_81
*1078 FILLER_37_93
*1079 FILLER_38_109
*1080 FILLER_38_121
*1081 FILLER_38_133
*1082 FILLER_38_139
*1083 FILLER_38_141
*1084 FILLER_38_15
*1085 FILLER_38_153
*1086 FILLER_38_165
*1087 FILLER_38_177
*1088 FILLER_38_189
*1089 FILLER_38_195
*1090 FILLER_38_197
*1091 FILLER_38_209
*1092 FILLER_38_221
*1093 FILLER_38_233
*1094 FILLER_38_245
*1095 FILLER_38_251
*1096 FILLER_38_253
*1097 FILLER_38_265
*1098 FILLER_38_27
*1099 FILLER_38_277
*1100 FILLER_38_289
*1101 FILLER_38_29
*1102 FILLER_38_297
*1103 FILLER_38_3
*1104 FILLER_38_41
*1105 FILLER_38_53
*1106 FILLER_38_65
*1107 FILLER_38_77
*1108 FILLER_38_83
*1109 FILLER_38_85
*1110 FILLER_38_97
*1111 FILLER_39_105
*1112 FILLER_39_111
*1113 FILLER_39_113
*1114 FILLER_39_125
*1115 FILLER_39_137
*1116 FILLER_39_149
*1117 FILLER_39_161
*1118 FILLER_39_167
*1119 FILLER_39_169
*1120 FILLER_39_181
*1121 FILLER_39_193
*1122 FILLER_39_20
*1123 FILLER_39_205
*1124 FILLER_39_217
*1125 FILLER_39_223
*1126 FILLER_39_225
*1127 FILLER_39_237
*1128 FILLER_39_249
*1129 FILLER_39_261
*1130 FILLER_39_273
*1131 FILLER_39_279
*1132 FILLER_39_281
*1133 FILLER_39_293
*1134 FILLER_39_3
*1135 FILLER_39_32
*1136 FILLER_39_44
*1137 FILLER_39_57
*1138 FILLER_39_69
*1139 FILLER_39_8
*1140 FILLER_39_81
*1141 FILLER_39_93
*1142 FILLER_3_111
*1143 FILLER_3_113
*1144 FILLER_3_125
*1145 FILLER_3_137
*1146 FILLER_3_149
*1147 FILLER_3_161
*1148 FILLER_3_167
*1149 FILLER_3_169
*1150 FILLER_3_181
*1151 FILLER_3_193
*1152 FILLER_3_205
*1153 FILLER_3_217
*1154 FILLER_3_223
*1155 FILLER_3_225
*1156 FILLER_3_237
*1157 FILLER_3_249
*1158 FILLER_3_25
*1159 FILLER_3_261
*1160 FILLER_3_273
*1161 FILLER_3_279
*1162 FILLER_3_281
*1163 FILLER_3_293
*1164 FILLER_3_3
*1165 FILLER_3_37
*1166 FILLER_3_54
*1167 FILLER_3_57
*1168 FILLER_3_75
*1169 FILLER_3_87
*1170 FILLER_3_99
*1171 FILLER_40_109
*1172 FILLER_40_121
*1173 FILLER_40_133
*1174 FILLER_40_139
*1175 FILLER_40_141
*1176 FILLER_40_15
*1177 FILLER_40_153
*1178 FILLER_40_165
*1179 FILLER_40_177
*1180 FILLER_40_189
*1181 FILLER_40_195
*1182 FILLER_40_197
*1183 FILLER_40_209
*1184 FILLER_40_221
*1185 FILLER_40_233
*1186 FILLER_40_245
*1187 FILLER_40_251
*1188 FILLER_40_253
*1189 FILLER_40_265
*1190 FILLER_40_27
*1191 FILLER_40_277
*1192 FILLER_40_289
*1193 FILLER_40_29
*1194 FILLER_40_297
*1195 FILLER_40_3
*1196 FILLER_40_41
*1197 FILLER_40_53
*1198 FILLER_40_65
*1199 FILLER_40_77
*1200 FILLER_40_83
*1201 FILLER_40_85
*1202 FILLER_40_97
*1203 FILLER_41_105
*1204 FILLER_41_111
*1205 FILLER_41_113
*1206 FILLER_41_125
*1207 FILLER_41_137
*1208 FILLER_41_149
*1209 FILLER_41_15
*1210 FILLER_41_161
*1211 FILLER_41_167
*1212 FILLER_41_169
*1213 FILLER_41_181
*1214 FILLER_41_193
*1215 FILLER_41_205
*1216 FILLER_41_217
*1217 FILLER_41_223
*1218 FILLER_41_225
*1219 FILLER_41_237
*1220 FILLER_41_249
*1221 FILLER_41_261
*1222 FILLER_41_27
*1223 FILLER_41_273
*1224 FILLER_41_279
*1225 FILLER_41_281
*1226 FILLER_41_293
*1227 FILLER_41_3
*1228 FILLER_41_39
*1229 FILLER_41_51
*1230 FILLER_41_55
*1231 FILLER_41_57
*1232 FILLER_41_69
*1233 FILLER_41_81
*1234 FILLER_41_93
*1235 FILLER_42_109
*1236 FILLER_42_121
*1237 FILLER_42_133
*1238 FILLER_42_139
*1239 FILLER_42_141
*1240 FILLER_42_153
*1241 FILLER_42_165
*1242 FILLER_42_177
*1243 FILLER_42_189
*1244 FILLER_42_195
*1245 FILLER_42_197
*1246 FILLER_42_20
*1247 FILLER_42_209
*1248 FILLER_42_221
*1249 FILLER_42_233
*1250 FILLER_42_245
*1251 FILLER_42_251
*1252 FILLER_42_253
*1253 FILLER_42_265
*1254 FILLER_42_277
*1255 FILLER_42_289
*1256 FILLER_42_29
*1257 FILLER_42_297
*1258 FILLER_42_3
*1259 FILLER_42_41
*1260 FILLER_42_53
*1261 FILLER_42_65
*1262 FILLER_42_77
*1263 FILLER_42_8
*1264 FILLER_42_83
*1265 FILLER_42_85
*1266 FILLER_42_97
*1267 FILLER_43_105
*1268 FILLER_43_111
*1269 FILLER_43_113
*1270 FILLER_43_125
*1271 FILLER_43_137
*1272 FILLER_43_149
*1273 FILLER_43_15
*1274 FILLER_43_161
*1275 FILLER_43_167
*1276 FILLER_43_169
*1277 FILLER_43_181
*1278 FILLER_43_193
*1279 FILLER_43_205
*1280 FILLER_43_217
*1281 FILLER_43_223
*1282 FILLER_43_225
*1283 FILLER_43_237
*1284 FILLER_43_249
*1285 FILLER_43_261
*1286 FILLER_43_27
*1287 FILLER_43_273
*1288 FILLER_43_279
*1289 FILLER_43_281
*1290 FILLER_43_293
*1291 FILLER_43_3
*1292 FILLER_43_39
*1293 FILLER_43_51
*1294 FILLER_43_55
*1295 FILLER_43_57
*1296 FILLER_43_69
*1297 FILLER_43_81
*1298 FILLER_43_93
*1299 FILLER_44_109
*1300 FILLER_44_121
*1301 FILLER_44_133
*1302 FILLER_44_139
*1303 FILLER_44_141
*1304 FILLER_44_15
*1305 FILLER_44_153
*1306 FILLER_44_165
*1307 FILLER_44_177
*1308 FILLER_44_189
*1309 FILLER_44_195
*1310 FILLER_44_197
*1311 FILLER_44_209
*1312 FILLER_44_221
*1313 FILLER_44_233
*1314 FILLER_44_245
*1315 FILLER_44_251
*1316 FILLER_44_253
*1317 FILLER_44_265
*1318 FILLER_44_27
*1319 FILLER_44_277
*1320 FILLER_44_289
*1321 FILLER_44_29
*1322 FILLER_44_297
*1323 FILLER_44_3
*1324 FILLER_44_41
*1325 FILLER_44_53
*1326 FILLER_44_65
*1327 FILLER_44_77
*1328 FILLER_44_83
*1329 FILLER_44_85
*1330 FILLER_44_97
*1331 FILLER_45_105
*1332 FILLER_45_111
*1333 FILLER_45_113
*1334 FILLER_45_125
*1335 FILLER_45_137
*1336 FILLER_45_149
*1337 FILLER_45_15
*1338 FILLER_45_161
*1339 FILLER_45_167
*1340 FILLER_45_169
*1341 FILLER_45_181
*1342 FILLER_45_193
*1343 FILLER_45_205
*1344 FILLER_45_217
*1345 FILLER_45_223
*1346 FILLER_45_225
*1347 FILLER_45_237
*1348 FILLER_45_249
*1349 FILLER_45_261
*1350 FILLER_45_27
*1351 FILLER_45_273
*1352 FILLER_45_279
*1353 FILLER_45_281
*1354 FILLER_45_293
*1355 FILLER_45_3
*1356 FILLER_45_39
*1357 FILLER_45_51
*1358 FILLER_45_55
*1359 FILLER_45_57
*1360 FILLER_45_69
*1361 FILLER_45_81
*1362 FILLER_45_93
*1363 FILLER_46_109
*1364 FILLER_46_121
*1365 FILLER_46_133
*1366 FILLER_46_139
*1367 FILLER_46_141
*1368 FILLER_46_153
*1369 FILLER_46_165
*1370 FILLER_46_177
*1371 FILLER_46_189
*1372 FILLER_46_195
*1373 FILLER_46_197
*1374 FILLER_46_20
*1375 FILLER_46_209
*1376 FILLER_46_221
*1377 FILLER_46_233
*1378 FILLER_46_245
*1379 FILLER_46_251
*1380 FILLER_46_253
*1381 FILLER_46_265
*1382 FILLER_46_277
*1383 FILLER_46_289
*1384 FILLER_46_29
*1385 FILLER_46_297
*1386 FILLER_46_3
*1387 FILLER_46_41
*1388 FILLER_46_53
*1389 FILLER_46_65
*1390 FILLER_46_77
*1391 FILLER_46_8
*1392 FILLER_46_83
*1393 FILLER_46_85
*1394 FILLER_46_97
*1395 FILLER_47_105
*1396 FILLER_47_111
*1397 FILLER_47_113
*1398 FILLER_47_125
*1399 FILLER_47_137
*1400 FILLER_47_149
*1401 FILLER_47_15
*1402 FILLER_47_161
*1403 FILLER_47_167
*1404 FILLER_47_169
*1405 FILLER_47_181
*1406 FILLER_47_193
*1407 FILLER_47_205
*1408 FILLER_47_217
*1409 FILLER_47_223
*1410 FILLER_47_225
*1411 FILLER_47_237
*1412 FILLER_47_249
*1413 FILLER_47_261
*1414 FILLER_47_27
*1415 FILLER_47_273
*1416 FILLER_47_279
*1417 FILLER_47_281
*1418 FILLER_47_293
*1419 FILLER_47_3
*1420 FILLER_47_39
*1421 FILLER_47_51
*1422 FILLER_47_55
*1423 FILLER_47_57
*1424 FILLER_47_69
*1425 FILLER_47_81
*1426 FILLER_47_93
*1427 FILLER_48_109
*1428 FILLER_48_121
*1429 FILLER_48_133
*1430 FILLER_48_139
*1431 FILLER_48_141
*1432 FILLER_48_15
*1433 FILLER_48_153
*1434 FILLER_48_165
*1435 FILLER_48_177
*1436 FILLER_48_189
*1437 FILLER_48_195
*1438 FILLER_48_197
*1439 FILLER_48_209
*1440 FILLER_48_221
*1441 FILLER_48_233
*1442 FILLER_48_245
*1443 FILLER_48_251
*1444 FILLER_48_253
*1445 FILLER_48_265
*1446 FILLER_48_27
*1447 FILLER_48_277
*1448 FILLER_48_289
*1449 FILLER_48_29
*1450 FILLER_48_297
*1451 FILLER_48_3
*1452 FILLER_48_41
*1453 FILLER_48_53
*1454 FILLER_48_65
*1455 FILLER_48_77
*1456 FILLER_48_83
*1457 FILLER_48_85
*1458 FILLER_48_97
*1459 FILLER_49_105
*1460 FILLER_49_111
*1461 FILLER_49_113
*1462 FILLER_49_125
*1463 FILLER_49_137
*1464 FILLER_49_149
*1465 FILLER_49_15
*1466 FILLER_49_161
*1467 FILLER_49_167
*1468 FILLER_49_169
*1469 FILLER_49_181
*1470 FILLER_49_193
*1471 FILLER_49_205
*1472 FILLER_49_217
*1473 FILLER_49_223
*1474 FILLER_49_225
*1475 FILLER_49_237
*1476 FILLER_49_249
*1477 FILLER_49_261
*1478 FILLER_49_27
*1479 FILLER_49_273
*1480 FILLER_49_279
*1481 FILLER_49_281
*1482 FILLER_49_293
*1483 FILLER_49_3
*1484 FILLER_49_39
*1485 FILLER_49_51
*1486 FILLER_49_55
*1487 FILLER_49_57
*1488 FILLER_49_69
*1489 FILLER_49_81
*1490 FILLER_49_93
*1491 FILLER_4_109
*1492 FILLER_4_121
*1493 FILLER_4_133
*1494 FILLER_4_139
*1495 FILLER_4_141
*1496 FILLER_4_153
*1497 FILLER_4_165
*1498 FILLER_4_177
*1499 FILLER_4_189
*1500 FILLER_4_195
*1501 FILLER_4_197
*1502 FILLER_4_209
*1503 FILLER_4_21
*1504 FILLER_4_221
*1505 FILLER_4_233
*1506 FILLER_4_245
*1507 FILLER_4_251
*1508 FILLER_4_253
*1509 FILLER_4_265
*1510 FILLER_4_27
*1511 FILLER_4_277
*1512 FILLER_4_289
*1513 FILLER_4_29
*1514 FILLER_4_297
*1515 FILLER_4_3
*1516 FILLER_4_47
*1517 FILLER_4_51
*1518 FILLER_4_68
*1519 FILLER_4_80
*1520 FILLER_4_85
*1521 FILLER_4_97
*1522 FILLER_50_109
*1523 FILLER_50_121
*1524 FILLER_50_133
*1525 FILLER_50_139
*1526 FILLER_50_141
*1527 FILLER_50_153
*1528 FILLER_50_165
*1529 FILLER_50_177
*1530 FILLER_50_189
*1531 FILLER_50_195
*1532 FILLER_50_197
*1533 FILLER_50_20
*1534 FILLER_50_209
*1535 FILLER_50_221
*1536 FILLER_50_233
*1537 FILLER_50_245
*1538 FILLER_50_251
*1539 FILLER_50_253
*1540 FILLER_50_265
*1541 FILLER_50_277
*1542 FILLER_50_289
*1543 FILLER_50_29
*1544 FILLER_50_297
*1545 FILLER_50_3
*1546 FILLER_50_41
*1547 FILLER_50_53
*1548 FILLER_50_65
*1549 FILLER_50_77
*1550 FILLER_50_8
*1551 FILLER_50_83
*1552 FILLER_50_85
*1553 FILLER_50_97
*1554 FILLER_51_105
*1555 FILLER_51_111
*1556 FILLER_51_113
*1557 FILLER_51_125
*1558 FILLER_51_137
*1559 FILLER_51_149
*1560 FILLER_51_15
*1561 FILLER_51_161
*1562 FILLER_51_167
*1563 FILLER_51_169
*1564 FILLER_51_181
*1565 FILLER_51_193
*1566 FILLER_51_205
*1567 FILLER_51_217
*1568 FILLER_51_223
*1569 FILLER_51_225
*1570 FILLER_51_237
*1571 FILLER_51_249
*1572 FILLER_51_261
*1573 FILLER_51_27
*1574 FILLER_51_273
*1575 FILLER_51_279
*1576 FILLER_51_281
*1577 FILLER_51_293
*1578 FILLER_51_3
*1579 FILLER_51_39
*1580 FILLER_51_51
*1581 FILLER_51_55
*1582 FILLER_51_57
*1583 FILLER_51_69
*1584 FILLER_51_81
*1585 FILLER_51_93
*1586 FILLER_52_109
*1587 FILLER_52_121
*1588 FILLER_52_133
*1589 FILLER_52_139
*1590 FILLER_52_141
*1591 FILLER_52_15
*1592 FILLER_52_153
*1593 FILLER_52_165
*1594 FILLER_52_177
*1595 FILLER_52_189