*SPEF "ieee 1481-1999"
*DESIGN "user_module_354091612057990145"
*DATE "11:11:11 Fri 11 11, 1111"
*VENDOR "OpenRCX"
*PROGRAM "Parallel Extraction"
*VERSION "1.0"
*DESIGN_FLOW "NAME_SCOPE LOCAL" "PIN_CAP NONE"
*DIVIDER /
*DELIMITER :
*BUS_DELIMITER []
*T_UNIT 1 NS
*C_UNIT 1 PF
*R_UNIT 1 OHM
*L_UNIT 1 HENRY

*NAME_MAP
*1 io_in[0]
*2 io_in[1]
*3 io_in[2]
*4 io_in[3]
*5 io_in[4]
*6 io_in[5]
*7 io_in[6]
*8 io_in[7]
*9 io_out[0]
*10 io_out[1]
*11 io_out[2]
*12 io_out[3]
*13 io_out[4]
*14 net8
*15 net9
*16 net10
*19 _00_
*20 _01_
*21 _02_
*22 _03_
*23 _04_
*24 _05_
*25 _06_
*26 _07_
*27 _08_
*28 _09_
*29 _10_
*30 _11_
*31 clknet_0__00_
*32 clknet_0__01_
*33 clknet_0__02_
*34 clknet_0__05_
*35 clknet_0__06_
*36 clknet_0__07_
*37 clknet_0_io_in[0]
*38 clknet_1_0__leaf__00_
*39 clknet_1_0__leaf__01_
*40 clknet_1_0__leaf__02_
*41 clknet_1_0__leaf__05_
*42 clknet_1_0__leaf__06_
*43 clknet_1_0__leaf__07_
*44 clknet_1_0__leaf_io_in[0]
*45 clknet_1_1__leaf__00_
*46 clknet_1_1__leaf__01_
*47 clknet_1_1__leaf__02_
*48 clknet_1_1__leaf__05_
*49 clknet_1_1__leaf__06_
*50 clknet_1_1__leaf__07_
*51 clknet_1_1__leaf_io_in[0]
*52 gate1\.out
*53 gate10\.out
*54 gate17\.out
*55 gate24\.out
*56 gate29\.out
*57 net1
*58 net2
*59 net3
*60 net4
*61 net5
*62 net6
*63 net7
*64 FILLER_0_109
*65 FILLER_0_113
*66 FILLER_0_125
*67 FILLER_0_137
*68 FILLER_0_141
*69 FILLER_0_15
*70 FILLER_0_153
*71 FILLER_0_165
*72 FILLER_0_169
*73 FILLER_0_181
*74 FILLER_0_193
*75 FILLER_0_197
*76 FILLER_0_209
*77 FILLER_0_221
*78 FILLER_0_225
*79 FILLER_0_237
*80 FILLER_0_249
*81 FILLER_0_253
*82 FILLER_0_265
*83 FILLER_0_27
*84 FILLER_0_277
*85 FILLER_0_281
*86 FILLER_0_29
*87 FILLER_0_293
*88 FILLER_0_3
*89 FILLER_0_41
*90 FILLER_0_53
*91 FILLER_0_57
*92 FILLER_0_69
*93 FILLER_0_81
*94 FILLER_0_85
*95 FILLER_0_97
*96 FILLER_10_109
*97 FILLER_10_121
*98 FILLER_10_133
*99 FILLER_10_139
*100 FILLER_10_141
*101 FILLER_10_15
*102 FILLER_10_153
*103 FILLER_10_165
*104 FILLER_10_177
*105 FILLER_10_189
*106 FILLER_10_195
*107 FILLER_10_197
*108 FILLER_10_209
*109 FILLER_10_221
*110 FILLER_10_233
*111 FILLER_10_245
*112 FILLER_10_251
*113 FILLER_10_253
*114 FILLER_10_265
*115 FILLER_10_27
*116 FILLER_10_277
*117 FILLER_10_289
*118 FILLER_10_29
*119 FILLER_10_297
*120 FILLER_10_3
*121 FILLER_10_41
*122 FILLER_10_53
*123 FILLER_10_65
*124 FILLER_10_77
*125 FILLER_10_83
*126 FILLER_10_85
*127 FILLER_10_97
*128 FILLER_11_105
*129 FILLER_11_111
*130 FILLER_11_113
*131 FILLER_11_125
*132 FILLER_11_137
*133 FILLER_11_149
*134 FILLER_11_161
*135 FILLER_11_167
*136 FILLER_11_169
*137 FILLER_11_181
*138 FILLER_11_193
*139 FILLER_11_20
*140 FILLER_11_205
*141 FILLER_11_217
*142 FILLER_11_223
*143 FILLER_11_225
*144 FILLER_11_237
*145 FILLER_11_249
*146 FILLER_11_261
*147 FILLER_11_273
*148 FILLER_11_279
*149 FILLER_11_281
*150 FILLER_11_293
*151 FILLER_11_3
*152 FILLER_11_32
*153 FILLER_11_44
*154 FILLER_11_57
*155 FILLER_11_69
*156 FILLER_11_8
*157 FILLER_11_81
*158 FILLER_11_93
*159 FILLER_12_109
*160 FILLER_12_121
*161 FILLER_12_133
*162 FILLER_12_139
*163 FILLER_12_141
*164 FILLER_12_153
*165 FILLER_12_165
*166 FILLER_12_177
*167 FILLER_12_189
*168 FILLER_12_195
*169 FILLER_12_197
*170 FILLER_12_209
*171 FILLER_12_221
*172 FILLER_12_233
*173 FILLER_12_245
*174 FILLER_12_25
*175 FILLER_12_251
*176 FILLER_12_253
*177 FILLER_12_265
*178 FILLER_12_277
*179 FILLER_12_289
*180 FILLER_12_29
*181 FILLER_12_297
*182 FILLER_12_3
*183 FILLER_12_41
*184 FILLER_12_53
*185 FILLER_12_65
*186 FILLER_12_77
*187 FILLER_12_83
*188 FILLER_12_85
*189 FILLER_12_97
*190 FILLER_13_105
*191 FILLER_13_111
*192 FILLER_13_113
*193 FILLER_13_125
*194 FILLER_13_137
*195 FILLER_13_149
*196 FILLER_13_15
*197 FILLER_13_161
*198 FILLER_13_167
*199 FILLER_13_169
*200 FILLER_13_181
*201 FILLER_13_193
*202 FILLER_13_205
*203 FILLER_13_217
*204 FILLER_13_223
*205 FILLER_13_225
*206 FILLER_13_237
*207 FILLER_13_249
*208 FILLER_13_25
*209 FILLER_13_261
*210 FILLER_13_273
*211 FILLER_13_279
*212 FILLER_13_281
*213 FILLER_13_293
*214 FILLER_13_3
*215 FILLER_13_37
*216 FILLER_13_49
*217 FILLER_13_55
*218 FILLER_13_57
*219 FILLER_13_69
*220 FILLER_13_81
*221 FILLER_13_93
*222 FILLER_14_109
*223 FILLER_14_121
*224 FILLER_14_133
*225 FILLER_14_139
*226 FILLER_14_141
*227 FILLER_14_153
*228 FILLER_14_165
*229 FILLER_14_177
*230 FILLER_14_189
*231 FILLER_14_195
*232 FILLER_14_197
*233 FILLER_14_209
*234 FILLER_14_221
*235 FILLER_14_233
*236 FILLER_14_245
*237 FILLER_14_25
*238 FILLER_14_251
*239 FILLER_14_253
*240 FILLER_14_265
*241 FILLER_14_277
*242 FILLER_14_289
*243 FILLER_14_29
*244 FILLER_14_297
*245 FILLER_14_3
*246 FILLER_14_41
*247 FILLER_14_53
*248 FILLER_14_65
*249 FILLER_14_77
*250 FILLER_14_83
*251 FILLER_14_85
*252 FILLER_14_97
*253 FILLER_15_105
*254 FILLER_15_111
*255 FILLER_15_113
*256 FILLER_15_12
*257 FILLER_15_125
*258 FILLER_15_137
*259 FILLER_15_149
*260 FILLER_15_161
*261 FILLER_15_167
*262 FILLER_15_169
*263 FILLER_15_181
*264 FILLER_15_193
*265 FILLER_15_205
*266 FILLER_15_217
*267 FILLER_15_223
*268 FILLER_15_225
*269 FILLER_15_237
*270 FILLER_15_249
*271 FILLER_15_261
*272 FILLER_15_273
*273 FILLER_15_279
*274 FILLER_15_281
*275 FILLER_15_293
*276 FILLER_15_3
*277 FILLER_15_36
*278 FILLER_15_48
*279 FILLER_15_57
*280 FILLER_15_69
*281 FILLER_15_81
*282 FILLER_15_93
*283 FILLER_16_109
*284 FILLER_16_121
*285 FILLER_16_133
*286 FILLER_16_139
*287 FILLER_16_141
*288 FILLER_16_153
*289 FILLER_16_165
*290 FILLER_16_177
*291 FILLER_16_189
*292 FILLER_16_195
*293 FILLER_16_197
*294 FILLER_16_209
*295 FILLER_16_221
*296 FILLER_16_233
*297 FILLER_16_245
*298 FILLER_16_251
*299 FILLER_16_253
*300 FILLER_16_26
*301 FILLER_16_265
*302 FILLER_16_277
*303 FILLER_16_289
*304 FILLER_16_29
*305 FILLER_16_297
*306 FILLER_16_3
*307 FILLER_16_44
*308 FILLER_16_56
*309 FILLER_16_68
*310 FILLER_16_80
*311 FILLER_16_85
*312 FILLER_16_97
*313 FILLER_17_105
*314 FILLER_17_111
*315 FILLER_17_113
*316 FILLER_17_12
*317 FILLER_17_125
*318 FILLER_17_137
*319 FILLER_17_149
*320 FILLER_17_161
*321 FILLER_17_167
*322 FILLER_17_169
*323 FILLER_17_181
*324 FILLER_17_193
*325 FILLER_17_205
*326 FILLER_17_217
*327 FILLER_17_223
*328 FILLER_17_225
*329 FILLER_17_237
*330 FILLER_17_249
*331 FILLER_17_261
*332 FILLER_17_273
*333 FILLER_17_279
*334 FILLER_17_281
*335 FILLER_17_293
*336 FILLER_17_3
*337 FILLER_17_36
*338 FILLER_17_47
*339 FILLER_17_55
*340 FILLER_17_57
*341 FILLER_17_69
*342 FILLER_17_81
*343 FILLER_17_93
*344 FILLER_18_109
*345 FILLER_18_121
*346 FILLER_18_133
*347 FILLER_18_139
*348 FILLER_18_141
*349 FILLER_18_153
*350 FILLER_18_165
*351 FILLER_18_177
*352 FILLER_18_189
*353 FILLER_18_195
*354 FILLER_18_197
*355 FILLER_18_209
*356 FILLER_18_221
*357 FILLER_18_233
*358 FILLER_18_245
*359 FILLER_18_25
*360 FILLER_18_251
*361 FILLER_18_253
*362 FILLER_18_265
*363 FILLER_18_277
*364 FILLER_18_289
*365 FILLER_18_29
*366 FILLER_18_297
*367 FILLER_18_3
*368 FILLER_18_51
*369 FILLER_18_63
*370 FILLER_18_75
*371 FILLER_18_83
*372 FILLER_18_85
*373 FILLER_18_97
*374 FILLER_19_105
*375 FILLER_19_111
*376 FILLER_19_113
*377 FILLER_19_125
*378 FILLER_19_137
*379 FILLER_19_149
*380 FILLER_19_161
*381 FILLER_19_167
*382 FILLER_19_169
*383 FILLER_19_181
*384 FILLER_19_193
*385 FILLER_19_205
*386 FILLER_19_217
*387 FILLER_19_223
*388 FILLER_19_225
*389 FILLER_19_237
*390 FILLER_19_249
*391 FILLER_19_261
*392 FILLER_19_273
*393 FILLER_19_279
*394 FILLER_19_281
*395 FILLER_19_293
*396 FILLER_19_3
*397 FILLER_19_33
*398 FILLER_19_45
*399 FILLER_19_54
*400 FILLER_19_57
*401 FILLER_19_69
*402 FILLER_19_81
*403 FILLER_19_9
*404 FILLER_19_93
*405 FILLER_1_105
*406 FILLER_1_111
*407 FILLER_1_113
*408 FILLER_1_125
*409 FILLER_1_137
*410 FILLER_1_149
*411 FILLER_1_15
*412 FILLER_1_161
*413 FILLER_1_167
*414 FILLER_1_169
*415 FILLER_1_181
*416 FILLER_1_193
*417 FILLER_1_205
*418 FILLER_1_217
*419 FILLER_1_223
*420 FILLER_1_225
*421 FILLER_1_237
*422 FILLER_1_249
*423 FILLER_1_261
*424 FILLER_1_27
*425 FILLER_1_273
*426 FILLER_1_279
*427 FILLER_1_281
*428 FILLER_1_293
*429 FILLER_1_3
*430 FILLER_1_39
*431 FILLER_1_51
*432 FILLER_1_55
*433 FILLER_1_57
*434 FILLER_1_69
*435 FILLER_1_81
*436 FILLER_1_93
*437 FILLER_20_109
*438 FILLER_20_121
*439 FILLER_20_133
*440 FILLER_20_139
*441 FILLER_20_141
*442 FILLER_20_153
*443 FILLER_20_165
*444 FILLER_20_177
*445 FILLER_20_189
*446 FILLER_20_195
*447 FILLER_20_197
*448 FILLER_20_209
*449 FILLER_20_221
*450 FILLER_20_233
*451 FILLER_20_245
*452 FILLER_20_25
*453 FILLER_20_251
*454 FILLER_20_253
*455 FILLER_20_265
*456 FILLER_20_277
*457 FILLER_20_289
*458 FILLER_20_29
*459 FILLER_20_297
*460 FILLER_20_3
*461 FILLER_20_51
*462 FILLER_20_63
*463 FILLER_20_75
*464 FILLER_20_83
*465 FILLER_20_85
*466 FILLER_20_97
*467 FILLER_21_10
*468 FILLER_21_105
*469 FILLER_21_111
*470 FILLER_21_113
*471 FILLER_21_125
*472 FILLER_21_137
*473 FILLER_21_149
*474 FILLER_21_161
*475 FILLER_21_167
*476 FILLER_21_169
*477 FILLER_21_181
*478 FILLER_21_193
*479 FILLER_21_205
*480 FILLER_21_217
*481 FILLER_21_223
*482 FILLER_21_225
*483 FILLER_21_237
*484 FILLER_21_249
*485 FILLER_21_261
*486 FILLER_21_273
*487 FILLER_21_279
*488 FILLER_21_281
*489 FILLER_21_293
*490 FILLER_21_3
*491 FILLER_21_34
*492 FILLER_21_51
*493 FILLER_21_55
*494 FILLER_21_57
*495 FILLER_21_69
*496 FILLER_21_81
*497 FILLER_21_93
*498 FILLER_22_109
*499 FILLER_22_121
*500 FILLER_22_133
*501 FILLER_22_139
*502 FILLER_22_141
*503 FILLER_22_153
*504 FILLER_22_165
*505 FILLER_22_177
*506 FILLER_22_189
*507 FILLER_22_195
*508 FILLER_22_197
*509 FILLER_22_209
*510 FILLER_22_221
*511 FILLER_22_233
*512 FILLER_22_245
*513 FILLER_22_251
*514 FILLER_22_253
*515 FILLER_22_26
*516 FILLER_22_265
*517 FILLER_22_277
*518 FILLER_22_289
*519 FILLER_22_29
*520 FILLER_22_297
*521 FILLER_22_3
*522 FILLER_22_51
*523 FILLER_22_75
*524 FILLER_22_83
*525 FILLER_22_85
*526 FILLER_22_97
*527 FILLER_23_105
*528 FILLER_23_111
*529 FILLER_23_113
*530 FILLER_23_12
*531 FILLER_23_125
*532 FILLER_23_137
*533 FILLER_23_149
*534 FILLER_23_161
*535 FILLER_23_167
*536 FILLER_23_169
*537 FILLER_23_181
*538 FILLER_23_193
*539 FILLER_23_205
*540 FILLER_23_217
*541 FILLER_23_223
*542 FILLER_23_225
*543 FILLER_23_237
*544 FILLER_23_249
*545 FILLER_23_261
*546 FILLER_23_273
*547 FILLER_23_279
*548 FILLER_23_281
*549 FILLER_23_293
*550 FILLER_23_3
*551 FILLER_23_36
*552 FILLER_23_53
*553 FILLER_23_57
*554 FILLER_23_69
*555 FILLER_23_81
*556 FILLER_23_93
*557 FILLER_24_109
*558 FILLER_24_121
*559 FILLER_24_133
*560 FILLER_24_139
*561 FILLER_24_141
*562 FILLER_24_153
*563 FILLER_24_165
*564 FILLER_24_177
*565 FILLER_24_189
*566 FILLER_24_195
*567 FILLER_24_197
*568 FILLER_24_209
*569 FILLER_24_221
*570 FILLER_24_233
*571 FILLER_24_245
*572 FILLER_24_25
*573 FILLER_24_251
*574 FILLER_24_253
*575 FILLER_24_265
*576 FILLER_24_277
*577 FILLER_24_289
*578 FILLER_24_29
*579 FILLER_24_297
*580 FILLER_24_3
*581 FILLER_24_51
*582 FILLER_24_58
*583 FILLER_24_70
*584 FILLER_24_82
*585 FILLER_24_85
*586 FILLER_24_97
*587 FILLER_25_10
*588 FILLER_25_105
*589 FILLER_25_111
*590 FILLER_25_113
*591 FILLER_25_125
*592 FILLER_25_137
*593 FILLER_25_149
*594 FILLER_25_161
*595 FILLER_25_167
*596 FILLER_25_169
*597 FILLER_25_181
*598 FILLER_25_193
*599 FILLER_25_205
*600 FILLER_25_217
*601 FILLER_25_223
*602 FILLER_25_225
*603 FILLER_25_237
*604 FILLER_25_249
*605 FILLER_25_261
*606 FILLER_25_273
*607 FILLER_25_279
*608 FILLER_25_281
*609 FILLER_25_293
*610 FILLER_25_3
*611 FILLER_25_34
*612 FILLER_25_45
*613 FILLER_25_53
*614 FILLER_25_57
*615 FILLER_25_69
*616 FILLER_25_81
*617 FILLER_25_93
*618 FILLER_26_109
*619 FILLER_26_121
*620 FILLER_26_133
*621 FILLER_26_139
*622 FILLER_26_141
*623 FILLER_26_153
*624 FILLER_26_165
*625 FILLER_26_177
*626 FILLER_26_189
*627 FILLER_26_195
*628 FILLER_26_197
*629 FILLER_26_209
*630 FILLER_26_221
*631 FILLER_26_233
*632 FILLER_26_245
*633 FILLER_26_251
*634 FILLER_26_253
*635 FILLER_26_26
*636 FILLER_26_265
*637 FILLER_26_277
*638 FILLER_26_289
*639 FILLER_26_29
*640 FILLER_26_297
*641 FILLER_26_3
*642 FILLER_26_40
*643 FILLER_26_47
*644 FILLER_26_59
*645 FILLER_26_71
*646 FILLER_26_83
*647 FILLER_26_85
*648 FILLER_26_97
*649 FILLER_27_105
*650 FILLER_27_111
*651 FILLER_27_113
*652 FILLER_27_125
*653 FILLER_27_137
*654 FILLER_27_149
*655 FILLER_27_161
*656 FILLER_27_167
*657 FILLER_27_169
*658 FILLER_27_181
*659 FILLER_27_193
*660 FILLER_27_205
*661 FILLER_27_217
*662 FILLER_27_223
*663 FILLER_27_225
*664 FILLER_27_237
*665 FILLER_27_249
*666 FILLER_27_261
*667 FILLER_27_273
*668 FILLER_27_279
*669 FILLER_27_281
*670 FILLER_27_293
*671 FILLER_27_3
*672 FILLER_27_31
*673 FILLER_27_48
*674 FILLER_27_57
*675 FILLER_27_69
*676 FILLER_27_81
*677 FILLER_27_93
*678 FILLER_28_109
*679 FILLER_28_121
*680 FILLER_28_133
*681 FILLER_28_139
*682 FILLER_28_141
*683 FILLER_28_153
*684 FILLER_28_165
*685 FILLER_28_177
*686 FILLER_28_189
*687 FILLER_28_195
*688 FILLER_28_197
*689 FILLER_28_209
*690 FILLER_28_221
*691 FILLER_28_233
*692 FILLER_28_245
*693 FILLER_28_25
*694 FILLER_28_251
*695 FILLER_28_253
*696 FILLER_28_265
*697 FILLER_28_277
*698 FILLER_28_289
*699 FILLER_28_29
*700 FILLER_28_297
*701 FILLER_28_3
*702 FILLER_28_34
*703 FILLER_28_46
*704 FILLER_28_58
*705 FILLER_28_70
*706 FILLER_28_82
*707 FILLER_28_85
*708 FILLER_28_97
*709 FILLER_29_105
*710 FILLER_29_111
*711 FILLER_29_113
*712 FILLER_29_125
*713 FILLER_29_137
*714 FILLER_29_149
*715 FILLER_29_161
*716 FILLER_29_167
*717 FILLER_29_169
*718 FILLER_29_181
*719 FILLER_29_193
*720 FILLER_29_20
*721 FILLER_29_205
*722 FILLER_29_217
*723 FILLER_29_223
*724 FILLER_29_225
*725 FILLER_29_237
*726 FILLER_29_249
*727 FILLER_29_261
*728 FILLER_29_273
*729 FILLER_29_279
*730 FILLER_29_28
*731 FILLER_29_281
*732 FILLER_29_293
*733 FILLER_29_3
*734 FILLER_29_40
*735 FILLER_29_52
*736 FILLER_29_57
*737 FILLER_29_69
*738 FILLER_29_81
*739 FILLER_29_93
*740 FILLER_2_109
*741 FILLER_2_121
*742 FILLER_2_133
*743 FILLER_2_139
*744 FILLER_2_141
*745 FILLER_2_15
*746 FILLER_2_153
*747 FILLER_2_165
*748 FILLER_2_177
*749 FILLER_2_189
*750 FILLER_2_195
*751 FILLER_2_197
*752 FILLER_2_209
*753 FILLER_2_221
*754 FILLER_2_233
*755 FILLER_2_245
*756 FILLER_2_251
*757 FILLER_2_253
*758 FILLER_2_265
*759 FILLER_2_27
*760 FILLER_2_277
*761 FILLER_2_289
*762 FILLER_2_29
*763 FILLER_2_297
*764 FILLER_2_3
*765 FILLER_2_41
*766 FILLER_2_53
*767 FILLER_2_65
*768 FILLER_2_77
*769 FILLER_2_83
*770 FILLER_2_85
*771 FILLER_2_97
*772 FILLER_30_109
*773 FILLER_30_11
*774 FILLER_30_121
*775 FILLER_30_133
*776 FILLER_30_139
*777 FILLER_30_141
*778 FILLER_30_153
*779 FILLER_30_16
*780 FILLER_30_165
*781 FILLER_30_177
*782 FILLER_30_189
*783 FILLER_30_195
*784 FILLER_30_197
*785 FILLER_30_209
*786 FILLER_30_221
*787 FILLER_30_233
*788 FILLER_30_245
*789 FILLER_30_251
*790 FILLER_30_253
*791 FILLER_30_265
*792 FILLER_30_277
*793 FILLER_30_289
*794 FILLER_30_29
*795 FILLER_30_297
*796 FILLER_30_3
*797 FILLER_30_41
*798 FILLER_30_53
*799 FILLER_30_65
*800 FILLER_30_77
*801 FILLER_30_83
*802 FILLER_30_85
*803 FILLER_30_97
*804 FILLER_31_105
*805 FILLER_31_111
*806 FILLER_31_113
*807 FILLER_31_125
*808 FILLER_31_137
*809 FILLER_31_149
*810 FILLER_31_161
*811 FILLER_31_167
*812 FILLER_31_169
*813 FILLER_31_181
*814 FILLER_31_193
*815 FILLER_31_205
*816 FILLER_31_21
*817 FILLER_31_217
*818 FILLER_31_223
*819 FILLER_31_225
*820 FILLER_31_237
*821 FILLER_31_249
*822 FILLER_31_261
*823 FILLER_31_273
*824 FILLER_31_279
*825 FILLER_31_281
*826 FILLER_31_293
*827 FILLER_31_3
*828 FILLER_31_33
*829 FILLER_31_45
*830 FILLER_31_53
*831 FILLER_31_57
*832 FILLER_31_69
*833 FILLER_31_81
*834 FILLER_31_9
*835 FILLER_31_93
*836 FILLER_32_109
*837 FILLER_32_121
*838 FILLER_32_133
*839 FILLER_32_139
*840 FILLER_32_141
*841 FILLER_32_15
*842 FILLER_32_153
*843 FILLER_32_165
*844 FILLER_32_177
*845 FILLER_32_189
*846 FILLER_32_195
*847 FILLER_32_197
*848 FILLER_32_209
*849 FILLER_32_221
*850 FILLER_32_233
*851 FILLER_32_245
*852 FILLER_32_251
*853 FILLER_32_253
*854 FILLER_32_265
*855 FILLER_32_27
*856 FILLER_32_277
*857 FILLER_32_289
*858 FILLER_32_29
*859 FILLER_32_297
*860 FILLER_32_3
*861 FILLER_32_41
*862 FILLER_32_53
*863 FILLER_32_65
*864 FILLER_32_77
*865 FILLER_32_83
*866 FILLER_32_85
*867 FILLER_32_97
*868 FILLER_33_105
*869 FILLER_33_111
*870 FILLER_33_113
*871 FILLER_33_12
*872 FILLER_33_125
*873 FILLER_33_137
*874 FILLER_33_149
*875 FILLER_33_161
*876 FILLER_33_167
*877 FILLER_33_169
*878 FILLER_33_181
*879 FILLER_33_193
*880 FILLER_33_205
*881 FILLER_33_217
*882 FILLER_33_223
*883 FILLER_33_225
*884 FILLER_33_237
*885 FILLER_33_24
*886 FILLER_33_249
*887 FILLER_33_261
*888 FILLER_33_273
*889 FILLER_33_279
*890 FILLER_33_281
*891 FILLER_33_293
*892 FILLER_33_3
*893 FILLER_33_36
*894 FILLER_33_48
*895 FILLER_33_57
*896 FILLER_33_69
*897 FILLER_33_7
*898 FILLER_33_81
*899 FILLER_33_93
*900 FILLER_34_109
*901 FILLER_34_121
*902 FILLER_34_133
*903 FILLER_34_139
*904 FILLER_34_141
*905 FILLER_34_15
*906 FILLER_34_153
*907 FILLER_34_165
*908 FILLER_34_177
*909 FILLER_34_189
*910 FILLER_34_195
*911 FILLER_34_197
*912 FILLER_34_209
*913 FILLER_34_221
*914 FILLER_34_233
*915 FILLER_34_245
*916 FILLER_34_251
*917 FILLER_34_253
*918 FILLER_34_265
*919 FILLER_34_27
*920 FILLER_34_277
*921 FILLER_34_289
*922 FILLER_34_29
*923 FILLER_34_297
*924 FILLER_34_3
*925 FILLER_34_41
*926 FILLER_34_53
*927 FILLER_34_65
*928 FILLER_34_77
*929 FILLER_34_83
*930 FILLER_34_85
*931 FILLER_34_97
*932 FILLER_35_105
*933 FILLER_35_111
*934 FILLER_35_113
*935 FILLER_35_125
*936 FILLER_35_137
*937 FILLER_35_149
*938 FILLER_35_15
*939 FILLER_35_161
*940 FILLER_35_167
*941 FILLER_35_169
*942 FILLER_35_181
*943 FILLER_35_193
*944 FILLER_35_205
*945 FILLER_35_217
*946 FILLER_35_223
*947 FILLER_35_225
*948 FILLER_35_237
*949 FILLER_35_249
*950 FILLER_35_261
*951 FILLER_35_27
*952 FILLER_35_273
*953 FILLER_35_279
*954 FILLER_35_281
*955 FILLER_35_293
*956 FILLER_35_3
*957 FILLER_35_39
*958 FILLER_35_51
*959 FILLER_35_55
*960 FILLER_35_57
*961 FILLER_35_69
*962 FILLER_35_81
*963 FILLER_35_93
*964 FILLER_36_109
*965 FILLER_36_121
*966 FILLER_36_133
*967 FILLER_36_139
*968 FILLER_36_141
*969 FILLER_36_15
*970 FILLER_36_153
*971 FILLER_36_165
*972 FILLER_36_177
*973 FILLER_36_189
*974 FILLER_36_195
*975 FILLER_36_197
*976 FILLER_36_209
*977 FILLER_36_221
*978 FILLER_36_233
*979 FILLER_36_245
*980 FILLER_36_251
*981 FILLER_36_253
*982 FILLER_36_265
*983 FILLER_36_27
*984 FILLER_36_277
*985 FILLER_36_289
*986 FILLER_36_29
*987 FILLER_36_297
*988 FILLER_36_3
*989 FILLER_36_41
*990 FILLER_36_53
*991 FILLER_36_65
*992 FILLER_36_77
*993 FILLER_36_83
*994 FILLER_36_85
*995 FILLER_36_97
*996 FILLER_37_105
*997 FILLER_37_111
*998 FILLER_37_113
*999 FILLER_37_125
*1000 FILLER_37_137
*1001 FILLER_37_149
*1002 FILLER_37_161
*1003 FILLER_37_167
*1004 FILLER_37_169
*1005 FILLER_37_181
*1006 FILLER_37_19
*1007 FILLER_37_193
*1008 FILLER_37_205
*1009 FILLER_37_217
*1010 FILLER_37_223
*1011 FILLER_37_225
*1012 FILLER_37_237
*1013 FILLER_37_249
*1014 FILLER_37_261
*1015 FILLER_37_273
*1016 FILLER_37_279
*1017 FILLER_37_281
*1018 FILLER_37_293
*1019 FILLER_37_3
*1020 FILLER_37_31
*1021 FILLER_37_43
*1022 FILLER_37_55
*1023 FILLER_37_57
*1024 FILLER_37_69
*1025 FILLER_37_81
*1026 FILLER_37_93
*1027 FILLER_38_109
*1028 FILLER_38_121
*1029 FILLER_38_133
*1030 FILLER_38_139
*1031 FILLER_38_141
*1032 FILLER_38_15
*1033 FILLER_38_153
*1034 FILLER_38_165
*1035 FILLER_38_177
*1036 FILLER_38_189
*1037 FILLER_38_195
*1038 FILLER_38_197
*1039 FILLER_38_209
*1040 FILLER_38_221
*1041 FILLER_38_233
*1042 FILLER_38_245
*1043 FILLER_38_251
*1044 FILLER_38_253
*1045 FILLER_38_265
*1046 FILLER_38_27
*1047 FILLER_38_277
*1048 FILLER_38_289
*1049 FILLER_38_29
*1050 FILLER_38_297
*1051 FILLER_38_3
*1052 FILLER_38_41
*1053 FILLER_38_53
*1054 FILLER_38_65
*1055 FILLER_38_77
*1056 FILLER_38_83
*1057 FILLER_38_85
*1058 FILLER_38_97
*1059 FILLER_39_105
*1060 FILLER_39_111
*1061 FILLER_39_113
*1062 FILLER_39_125
*1063 FILLER_39_137
*1064 FILLER_39_149
*1065 FILLER_39_15
*1066 FILLER_39_161
*1067 FILLER_39_167
*1068 FILLER_39_169
*1069 FILLER_39_181
*1070 FILLER_39_193
*1071 FILLER_39_205
*1072 FILLER_39_217
*1073 FILLER_39_223
*1074 FILLER_39_225
*1075 FILLER_39_237
*1076 FILLER_39_249
*1077 FILLER_39_261
*1078 FILLER_39_27
*1079 FILLER_39_273
*1080 FILLER_39_279
*1081 FILLER_39_281
*1082 FILLER_39_293
*1083 FILLER_39_3
*1084 FILLER_39_39
*1085 FILLER_39_51
*1086 FILLER_39_55
*1087 FILLER_39_57
*1088 FILLER_39_69
*1089 FILLER_39_81
*1090 FILLER_39_93
*1091 FILLER_3_105
*1092 FILLER_3_111
*1093 FILLER_3_113
*1094 FILLER_3_125
*1095 FILLER_3_137
*1096 FILLER_3_149
*1097 FILLER_3_15
*1098 FILLER_3_161
*1099 FILLER_3_167
*1100 FILLER_3_169
*1101 FILLER_3_181
*1102 FILLER_3_193
*1103 FILLER_3_205
*1104 FILLER_3_217
*1105 FILLER_3_223
*1106 FILLER_3_225
*1107 FILLER_3_237
*1108 FILLER_3_249
*1109 FILLER_3_261
*1110 FILLER_3_27
*1111 FILLER_3_273
*1112 FILLER_3_279
*1113 FILLER_3_281
*1114 FILLER_3_293
*1115 FILLER_3_3
*1116 FILLER_3_39
*1117 FILLER_3_51
*1118 FILLER_3_55
*1119 FILLER_3_57
*1120 FILLER_3_69
*1121 FILLER_3_81
*1122 FILLER_3_93
*1123 FILLER_40_109
*1124 FILLER_40_121
*1125 FILLER_40_133
*1126 FILLER_40_139
*1127 FILLER_40_141
*1128 FILLER_40_15
*1129 FILLER_40_153
*1130 FILLER_40_165
*1131 FILLER_40_177
*1132 FILLER_40_189
*1133 FILLER_40_195
*1134 FILLER_40_197
*1135 FILLER_40_209
*1136 FILLER_40_221
*1137 FILLER_40_233
*1138 FILLER_40_245
*1139 FILLER_40_251
*1140 FILLER_40_253
*1141 FILLER_40_265
*1142 FILLER_40_27
*1143 FILLER_40_277
*1144 FILLER_40_289
*1145 FILLER_40_29
*1146 FILLER_40_297
*1147 FILLER_40_3
*1148 FILLER_40_41
*1149 FILLER_40_53
*1150 FILLER_40_65
*1151 FILLER_40_77
*1152 FILLER_40_83
*1153 FILLER_40_85
*1154 FILLER_40_97
*1155 FILLER_41_105
*1156 FILLER_41_111
*1157 FILLER_41_113
*1158 FILLER_41_125
*1159 FILLER_41_137
*1160 FILLER_41_149
*1161 FILLER_41_15
*1162 FILLER_41_161
*1163 FILLER_41_167
*1164 FILLER_41_169
*1165 FILLER_41_181
*1166 FILLER_41_193
*1167 FILLER_41_205
*1168 FILLER_41_217
*1169 FILLER_41_223
*1170 FILLER_41_225
*1171 FILLER_41_237
*1172 FILLER_41_249
*1173 FILLER_41_261
*1174 FILLER_41_27
*1175 FILLER_41_273
*1176 FILLER_41_279
*1177 FILLER_41_281
*1178 FILLER_41_293
*1179 FILLER_41_3
*1180 FILLER_41_39
*1181 FILLER_41_51
*1182 FILLER_41_55
*1183 FILLER_41_57
*1184 FILLER_41_69
*1185 FILLER_41_81
*1186 FILLER_41_93
*1187 FILLER_42_109
*1188 FILLER_42_121
*1189 FILLER_42_133
*1190 FILLER_42_139
*1191 FILLER_42_141
*1192 FILLER_42_15
*1193 FILLER_42_153
*1194 FILLER_42_165
*1195 FILLER_42_177
*1196 FILLER_42_189
*1197 FILLER_42_195
*1198 FILLER_42_197
*1199 FILLER_42_209
*1200 FILLER_42_221
*1201 FILLER_42_233
*1202 FILLER_42_245
*1203 FILLER_42_251
*1204 FILLER_42_253
*1205 FILLER_42_265
*1206 FILLER_42_27
*1207 FILLER_42_277
*1208 FILLER_42_289
*1209 FILLER_42_29
*1210 FILLER_42_297
*1211 FILLER_42_3
*1212 FILLER_42_41
*1213 FILLER_42_53
*1214 FILLER_42_65
*1215 FILLER_42_77
*1216 FILLER_42_83
*1217 FILLER_42_85
*1218 FILLER_42_97
*1219 FILLER_43_105
*1220 FILLER_43_111
*1221 FILLER_43_113
*1222 FILLER_43_125
*1223 FILLER_43_137
*1224 FILLER_43_149
*1225 FILLER_43_15
*1226 FILLER_43_161
*1227 FILLER_43_167
*1228 FILLER_43_169
*1229 FILLER_43_181
*1230 FILLER_43_193
*1231 FILLER_43_205
*1232 FILLER_43_217
*1233 FILLER_43_223
*1234 FILLER_43_225
*1235 FILLER_43_237
*1236 FILLER_43_249
*1237 FILLER_43_261
*1238 FILLER_43_27
*1239 FILLER_43_273
*1240 FILLER_43_279
*1241 FILLER_43_281
*1242 FILLER_43_293
*1243 FILLER_43_3
*1244 FILLER_43_39
*1245 FILLER_43_51
*1246 FILLER_43_55
*1247 FILLER_43_57
*1248 FILLER_43_69
*1249 FILLER_43_81
*1250 FILLER_43_93
*1251 FILLER_44_109
*1252 FILLER_44_121
*1253 FILLER_44_133
*1254 FILLER_44_139
*1255 FILLER_44_141
*1256 FILLER_44_15
*1257 FILLER_44_153
*1258 FILLER_44_165
*1259 FILLER_44_177
*1260 FILLER_44_189
*1261 FILLER_44_195
*1262 FILLER_44_197
*1263 FILLER_44_209
*1264 FILLER_44_221
*1265 FILLER_44_233
*1266 FILLER_44_245
*1267 FILLER_44_251
*1268 FILLER_44_253
*1269 FILLER_44_265
*1270 FILLER_44_27
*1271 FILLER_44_277
*1272 FILLER_44_289
*1273 FILLER_44_29
*1274 FILLER_44_297
*1275 FILLER_44_3
*1276 FILLER_44_41
*1277 FILLER_44_53
*1278 FILLER_44_65
*1279 FILLER_44_77
*1280 FILLER_44_83
*1281 FILLER_44_85
*1282 FILLER_44_97
*1283 FILLER_45_105
*1284 FILLER_45_111
*1285 FILLER_45_113
*1286 FILLER_45_125
*1287 FILLER_45_137
*1288 FILLER_45_149
*1289 FILLER_45_15
*1290 FILLER_45_161
*1291 FILLER_45_167
*1292 FILLER_45_169
*1293 FILLER_45_181
*1294 FILLER_45_193
*1295 FILLER_45_205
*1296 FILLER_45_217
*1297 FILLER_45_223
*1298 FILLER_45_225
*1299 FILLER_45_237
*1300 FILLER_45_249
*1301 FILLER_45_261
*1302 FILLER_45_27
*1303 FILLER_45_273
*1304 FILLER_45_279
*1305 FILLER_45_281
*1306 FILLER_45_293
*1307 FILLER_45_3
*1308 FILLER_45_39
*1309 FILLER_45_51
*1310 FILLER_45_55
*1311 FILLER_45_57
*1312 FILLER_45_69
*1313 FILLER_45_81
*1314 FILLER_45_93
*1315 FILLER_46_109
*1316 FILLER_46_121
*1317 FILLER_46_133
*1318 FILLER_46_139
*1319 FILLER_46_141
*1320 FILLER_46_15
*1321 FILLER_46_153
*1322 FILLER_46_165
*1323 FILLER_46_177
*1324 FILLER_46_189
*1325 FILLER_46_195
*1326 FILLER_46_197
*1327 FILLER_46_209
*1328 FILLER_46_221
*1329 FILLER_46_233
*1330 FILLER_46_245
*1331 FILLER_46_251
*1332 FILLER_46_253
*1333 FILLER_46_265
*1334 FILLER_46_27
*1335 FILLER_46_277
*1336 FILLER_46_289
*1337 FILLER_46_29
*1338 FILLER_46_297
*1339 FILLER_46_3
*1340 FILLER_46_41
*1341 FILLER_46_53
*1342 FILLER_46_65
*1343 FILLER_46_77
*1344 FILLER_46_83
*1345 FILLER_46_85
*1346 FILLER_46_97
*1347 FILLER_47_105
*1348 FILLER_47_111
*1349 FILLER_47_113
*1350 FILLER_47_125
*1351 FILLER_47_137
*1352 FILLER_47_149
*1353 FILLER_47_15
*1354 FILLER_47_161
*1355 FILLER_47_167
*1356 FILLER_47_169
*1357 FILLER_47_181
*1358 FILLER_47_193
*1359 FILLER_47_205
*1360 FILLER_47_217
*1361 FILLER_47_223
*1362 FILLER_47_225
*1363 FILLER_47_237
*1364 FILLER_47_249
*1365 FILLER_47_261
*1366 FILLER_47_27
*1367 FILLER_47_273
*1368 FILLER_47_279
*1369 FILLER_47_281
*1370 FILLER_47_293
*1371 FILLER_47_3
*1372 FILLER_47_39
*1373 FILLER_47_51
*1374 FILLER_47_55
*1375 FILLER_47_57
*1376 FILLER_47_69
*1377 FILLER_47_81
*1378 FILLER_47_93
*1379 FILLER_48_109
*1380 FILLER_48_121
*1381 FILLER_48_133
*1382 FILLER_48_139
*1383 FILLER_48_141
*1384 FILLER_48_15
*1385 FILLER_48_153
*1386 FILLER_48_165
*1387 FILLER_48_177
*1388 FILLER_48_189
*1389 FILLER_48_195
*1390 FILLER_48_197
*1391 FILLER_48_209
*1392 FILLER_48_221
*1393 FILLER_48_233
*1394 FILLER_48_245
*1395 FILLER_48_251
*1396 FILLER_48_253
*1397 FILLER_48_265
*1398 FILLER_48_27
*1399 FILLER_48_277
*1400 FILLER_48_289
*1401 FILLER_48_29
*1402 FILLER_48_297
*1403 FILLER_48_3
*1404 FILLER_48_41
*1405 FILLER_48_53
*1406 FILLER_48_65
*1407 FILLER_48_77
*1408 FILLER_48_83
*1409 FILLER_48_85
*1410 FILLER_48_97
*1411 FILLER_49_105
*1412 FILLER_49_111
*1413 FILLER_49_113
*1414 FILLER_49_125
*1415 FILLER_49_137
*1416 FILLER_49_149
*1417 FILLER_49_15
*1418 FILLER_49_161
*1419 FILLER_49_167
*1420 FILLER_49_169
*1421 FILLER_49_181
*1422 FILLER_49_193
*1423 FILLER_49_205
*1424 FILLER_49_217
*1425 FILLER_49_223
*1426 FILLER_49_225
*1427 FILLER_49_237
*1428 FILLER_49_249
*1429 FILLER_49_261
*1430 FILLER_49_27
*1431 FILLER_49_273
*1432 FILLER_49_279
*1433 FILLER_49_281
*1434 FILLER_49_293
*1435 FILLER_49_3
*1436 FILLER_49_39
*1437 FILLER_49_51
*1438 FILLER_49_55
*1439 FILLER_49_57
*1440 FILLER_49_69
*1441 FILLER_49_81
*1442 FILLER_49_93
*1443 FILLER_4_109
*1444 FILLER_4_121
*1445 FILLER_4_133
*1446 FILLER_4_139
*1447 FILLER_4_141
*1448 FILLER_4_15
*1449 FILLER_4_153
*1450 FILLER_4_165
*1451 FILLER_4_177
*1452 FILLER_4_189
*1453 FILLER_4_195
*1454 FILLER_4_197
*1455 FILLER_4_209
*1456 FILLER_4_221
*1457 FILLER_4_233
*1458 FILLER_4_245
*1459 FILLER_4_251
*1460 FILLER_4_253
*1461 FILLER_4_265
*1462 FILLER_4_27
*1463 FILLER_4_277
*1464 FILLER_4_289
*1465 FILLER_4_29
*1466 FILLER_4_297
*1467 FILLER_4_3
*1468 FILLER_4_41
*1469 FILLER_4_53
*1470 FILLER_4_65
*1471 FILLER_4_77
*1472 FILLER_4_83
*1473 FILLER_4_85
*1474 FILLER_4_97
*1475 FILLER_50_109
*1476 FILLER_50_121
*1477 FILLER_50_133
*1478 FILLER_50_139
*1479 FILLER_50_141
*1480 FILLER_50_153
*1481 FILLER_50_165
*1482 FILLER_50_177
*1483 FILLER_50_189
*1484 FILLER_50_195
*1485 FILLER_50_197
*1486 FILLER_50_20
*1487 FILLER_50_209
*1488 FILLER_50_221
*1489 FILLER_50_233
*1490 FILLER_50_245
*1491 FILLER_50_251
*1492 FILLER_50_253
*1493 FILLER_50_265
*1494 FILLER_50_277
*1495 FILLER_50_289
*1496 FILLER_50_29
*1497 FILLER_50_297
*1498 FILLER_50_3
*1499 FILLER_50_41
*1500 FILLER_50_53
*1501 FILLER_50_65
*1502 FILLER_50_77
*1503 FILLER_50_8
*1504 FILLER_50_83
*1505 FILLER_50_85
*1506 FILLER_50_97
*1507 FILLER_51_105
*1508 FILLER_51_111
*1509 FILLER_51_113
*1510 FILLER_51_125
*1511 FILLER_51_137
*1512 FILLER_51_149
*1513 FILLER_51_15
*1514 FILLER_51_161
*1515 FILLER_51_167
*1516 FILLER_51_169
*1517 FILLER_51_181
*1518 FILLER_51_193
*1519 FILLER_51_205
*1520 FILLER_51_217
*1521 FILLER_51_223
*1522 FILLER_51_225
*1523 FILLER_51_237
*1524 FILLER_51_249
*1525 FILLER_51_261
*1526 FILLER_51_27
*1527 FILLER_51_273
*1528 FILLER_51_279
*1529 FILLER_51_281
*1530 FILLER_51_293
*1531 FILLER_51_3
*1532 FILLER_51_39
*1533 FILLER_51_51
*1534 FILLER_51_55
*1535 FILLER_51_57
*1536 FILLER_51_69
*1537 FILLER_51_81
*1538 FILLER_51_93
*1539 FILLER_52_109
*1540 FILLER_52_121
*1541 FILLER_52_133
*1542 FILLER_52_139
*1543 FILLER_52_141
*1544 FILLER_52_15
*1545 FILLER_52_153
*1546 FILLER_52_165
*1547 FILLER_52_177
*1548 FILLER_52_189
*1549 FILLER_52_195
*1550 FILLER_52_197
*1551 FILLER_52_209
*1552 FILLER_52_221
*1553 FILLER_52_233
*1554 FILLER_52_245
*1555 FILLER_52_251
*1556 FILLER_52_253
*1557 FILLER_52_265
*1558 FILLER_52_27
*1559 FILLER_52_277
*1560 FILLER_52_289
*1561 FILLER_52_29
*1562 FILLER_52_297
*1563 FILLER_52_3
*1564 FILLER_52_41
*1565 FILLER_52_53
*1566 FILLER_52_65
*1567 FILLER_52_77
*1568 FILLER_52_83
*1569 FILLER_52_85
*1570 FILLER_52_97
*1571 FILLER_53_105
*1572 FILLER_53_111
*1573 FILLER_53_113
*1574 FILLER_53_125
*1575 FILLER_53_137
*1576 FILLER_53_149
*1577 FILLER_53_15
*1578 FILLER_53_161
*1579 FILLER_53_167
*1580 FILLER_53_169
*1581 FILLER_53_181
*1582 FILLER_53_193
*1583 FILLER_53_205