*SPEF "ieee 1481-1999"
*DESIGN "user_module_362371515213982721"
*DATE "11:11:11 Fri 11 11, 1111"
*VENDOR "OpenRCX"
*PROGRAM "Parallel Extraction"
*VERSION "1.0"
*DESIGN_FLOW "NAME_SCOPE LOCAL" "PIN_CAP NONE"
*DIVIDER /
*DELIMITER :
*BUS_DELIMITER []
*T_UNIT 1 NS
*C_UNIT 1 PF
*R_UNIT 1 OHM
*L_UNIT 1 HENRY

*NAME_MAP
*1 io_in[0]
*2 io_in[1]
*3 io_in[2]
*4 io_in[3]
*5 io_in[4]
*6 io_in[5]
*7 io_in[6]
*8 io_in[7]
*9 io_out[0]
*10 io_out[1]
*11 io_out[2]
*12 io_out[3]
*13 io_out[4]
*14 io_out[5]
*15 io_out[6]
*16 net4
*19 _00_
*20 _01_
*21 _02_
*22 _03_
*23 _04_
*24 _05_
*25 _06_
*26 _07_
*27 _08_
*28 _09_
*29 clknet_0__05_
*30 clknet_0_io_in[0]
*31 clknet_1_0__leaf__05_
*32 clknet_1_0__leaf_io_in[0]
*33 clknet_1_1__leaf__05_
*34 clknet_1_1__leaf_io_in[0]
*35 gate52\.out
*36 gate57\.out
*37 gate59\.out
*38 gate60\.out
*39 gate67\.out
*40 gate73\.out
*41 gate78\.out
*42 net1
*43 net2
*44 net3
*45 FILLER_0_109
*46 FILLER_0_113
*47 FILLER_0_125
*48 FILLER_0_137
*49 FILLER_0_141
*50 FILLER_0_15
*51 FILLER_0_153
*52 FILLER_0_165
*53 FILLER_0_169
*54 FILLER_0_181
*55 FILLER_0_193
*56 FILLER_0_197
*57 FILLER_0_209
*58 FILLER_0_221
*59 FILLER_0_225
*60 FILLER_0_237
*61 FILLER_0_249
*62 FILLER_0_253
*63 FILLER_0_265
*64 FILLER_0_27
*65 FILLER_0_277
*66 FILLER_0_281
*67 FILLER_0_29
*68 FILLER_0_293
*69 FILLER_0_3
*70 FILLER_0_41
*71 FILLER_0_53
*72 FILLER_0_57
*73 FILLER_0_69
*74 FILLER_0_81
*75 FILLER_0_85
*76 FILLER_0_97
*77 FILLER_10_109
*78 FILLER_10_121
*79 FILLER_10_133
*80 FILLER_10_139
*81 FILLER_10_141
*82 FILLER_10_15
*83 FILLER_10_153
*84 FILLER_10_165
*85 FILLER_10_177
*86 FILLER_10_189
*87 FILLER_10_195
*88 FILLER_10_197
*89 FILLER_10_209
*90 FILLER_10_221
*91 FILLER_10_233
*92 FILLER_10_245
*93 FILLER_10_251
*94 FILLER_10_253
*95 FILLER_10_265
*96 FILLER_10_27
*97 FILLER_10_277
*98 FILLER_10_289
*99 FILLER_10_29
*100 FILLER_10_297
*101 FILLER_10_3
*102 FILLER_10_41
*103 FILLER_10_53
*104 FILLER_10_65
*105 FILLER_10_77
*106 FILLER_10_83
*107 FILLER_10_85
*108 FILLER_10_97
*109 FILLER_11_105
*110 FILLER_11_111
*111 FILLER_11_113
*112 FILLER_11_125
*113 FILLER_11_137
*114 FILLER_11_149
*115 FILLER_11_15
*116 FILLER_11_161
*117 FILLER_11_167
*118 FILLER_11_169
*119 FILLER_11_181
*120 FILLER_11_193
*121 FILLER_11_205
*122 FILLER_11_217
*123 FILLER_11_223
*124 FILLER_11_225
*125 FILLER_11_237
*126 FILLER_11_249
*127 FILLER_11_261
*128 FILLER_11_27
*129 FILLER_11_273
*130 FILLER_11_279
*131 FILLER_11_281
*132 FILLER_11_293
*133 FILLER_11_3
*134 FILLER_11_39
*135 FILLER_11_51
*136 FILLER_11_55
*137 FILLER_11_57
*138 FILLER_11_69
*139 FILLER_11_81
*140 FILLER_11_93
*141 FILLER_12_109
*142 FILLER_12_121
*143 FILLER_12_133
*144 FILLER_12_139
*145 FILLER_12_141
*146 FILLER_12_15
*147 FILLER_12_153
*148 FILLER_12_165
*149 FILLER_12_177
*150 FILLER_12_189
*151 FILLER_12_195
*152 FILLER_12_197
*153 FILLER_12_209
*154 FILLER_12_221
*155 FILLER_12_233
*156 FILLER_12_245
*157 FILLER_12_251
*158 FILLER_12_253
*159 FILLER_12_265
*160 FILLER_12_27
*161 FILLER_12_277
*162 FILLER_12_289
*163 FILLER_12_29
*164 FILLER_12_297
*165 FILLER_12_3
*166 FILLER_12_41
*167 FILLER_12_53
*168 FILLER_12_65
*169 FILLER_12_77
*170 FILLER_12_83
*171 FILLER_12_85
*172 FILLER_12_97
*173 FILLER_13_105
*174 FILLER_13_111
*175 FILLER_13_113
*176 FILLER_13_125
*177 FILLER_13_137
*178 FILLER_13_149
*179 FILLER_13_15
*180 FILLER_13_161
*181 FILLER_13_167
*182 FILLER_13_169
*183 FILLER_13_181
*184 FILLER_13_193
*185 FILLER_13_205
*186 FILLER_13_217
*187 FILLER_13_223
*188 FILLER_13_225
*189 FILLER_13_237
*190 FILLER_13_249
*191 FILLER_13_261
*192 FILLER_13_27
*193 FILLER_13_273
*194 FILLER_13_279
*195 FILLER_13_281
*196 FILLER_13_293
*197 FILLER_13_3
*198 FILLER_13_39
*199 FILLER_13_51
*200 FILLER_13_55
*201 FILLER_13_57
*202 FILLER_13_69
*203 FILLER_13_81
*204 FILLER_13_93
*205 FILLER_14_109
*206 FILLER_14_121
*207 FILLER_14_133
*208 FILLER_14_139
*209 FILLER_14_141
*210 FILLER_14_15
*211 FILLER_14_153
*212 FILLER_14_165
*213 FILLER_14_177
*214 FILLER_14_189
*215 FILLER_14_195
*216 FILLER_14_197
*217 FILLER_14_209
*218 FILLER_14_221
*219 FILLER_14_233
*220 FILLER_14_245
*221 FILLER_14_251
*222 FILLER_14_253
*223 FILLER_14_265
*224 FILLER_14_27
*225 FILLER_14_277
*226 FILLER_14_289
*227 FILLER_14_29
*228 FILLER_14_297
*229 FILLER_14_3
*230 FILLER_14_41
*231 FILLER_14_53
*232 FILLER_14_65
*233 FILLER_14_77
*234 FILLER_14_83
*235 FILLER_14_85
*236 FILLER_14_97
*237 FILLER_15_105
*238 FILLER_15_111
*239 FILLER_15_113
*240 FILLER_15_125
*241 FILLER_15_137
*242 FILLER_15_149
*243 FILLER_15_15
*244 FILLER_15_161
*245 FILLER_15_167
*246 FILLER_15_169
*247 FILLER_15_181
*248 FILLER_15_193
*249 FILLER_15_205
*250 FILLER_15_217
*251 FILLER_15_223
*252 FILLER_15_225
*253 FILLER_15_237
*254 FILLER_15_249
*255 FILLER_15_261
*256 FILLER_15_27
*257 FILLER_15_273
*258 FILLER_15_279
*259 FILLER_15_281
*260 FILLER_15_293
*261 FILLER_15_3
*262 FILLER_15_39
*263 FILLER_15_51
*264 FILLER_15_55
*265 FILLER_15_57
*266 FILLER_15_69
*267 FILLER_15_81
*268 FILLER_15_93
*269 FILLER_16_109
*270 FILLER_16_121
*271 FILLER_16_133
*272 FILLER_16_139
*273 FILLER_16_141
*274 FILLER_16_15
*275 FILLER_16_153
*276 FILLER_16_165
*277 FILLER_16_177
*278 FILLER_16_189
*279 FILLER_16_195
*280 FILLER_16_197
*281 FILLER_16_209
*282 FILLER_16_221
*283 FILLER_16_233
*284 FILLER_16_245
*285 FILLER_16_251
*286 FILLER_16_253
*287 FILLER_16_265
*288 FILLER_16_27
*289 FILLER_16_277
*290 FILLER_16_289
*291 FILLER_16_29
*292 FILLER_16_297
*293 FILLER_16_3
*294 FILLER_16_41
*295 FILLER_16_53
*296 FILLER_16_65
*297 FILLER_16_77
*298 FILLER_16_83
*299 FILLER_16_85
*300 FILLER_16_97
*301 FILLER_17_105
*302 FILLER_17_111
*303 FILLER_17_113
*304 FILLER_17_125
*305 FILLER_17_137
*306 FILLER_17_149
*307 FILLER_17_15
*308 FILLER_17_161
*309 FILLER_17_167
*310 FILLER_17_169
*311 FILLER_17_181
*312 FILLER_17_193
*313 FILLER_17_205
*314 FILLER_17_217
*315 FILLER_17_223
*316 FILLER_17_225
*317 FILLER_17_237
*318 FILLER_17_249
*319 FILLER_17_261
*320 FILLER_17_27
*321 FILLER_17_273
*322 FILLER_17_279
*323 FILLER_17_281
*324 FILLER_17_293
*325 FILLER_17_3
*326 FILLER_17_39
*327 FILLER_17_51
*328 FILLER_17_55
*329 FILLER_17_57
*330 FILLER_17_69
*331 FILLER_17_81
*332 FILLER_17_93
*333 FILLER_18_109
*334 FILLER_18_121
*335 FILLER_18_133
*336 FILLER_18_139
*337 FILLER_18_141
*338 FILLER_18_15
*339 FILLER_18_153
*340 FILLER_18_165
*341 FILLER_18_177
*342 FILLER_18_189
*343 FILLER_18_195
*344 FILLER_18_197
*345 FILLER_18_209
*346 FILLER_18_221
*347 FILLER_18_233
*348 FILLER_18_245
*349 FILLER_18_251
*350 FILLER_18_253
*351 FILLER_18_265
*352 FILLER_18_27
*353 FILLER_18_277
*354 FILLER_18_289
*355 FILLER_18_29
*356 FILLER_18_297
*357 FILLER_18_3
*358 FILLER_18_41
*359 FILLER_18_53
*360 FILLER_18_65
*361 FILLER_18_77
*362 FILLER_18_83
*363 FILLER_18_85
*364 FILLER_18_97
*365 FILLER_19_105
*366 FILLER_19_111
*367 FILLER_19_113
*368 FILLER_19_125
*369 FILLER_19_137
*370 FILLER_19_149
*371 FILLER_19_15
*372 FILLER_19_161
*373 FILLER_19_167
*374 FILLER_19_169
*375 FILLER_19_181
*376 FILLER_19_193
*377 FILLER_19_205
*378 FILLER_19_217
*379 FILLER_19_223
*380 FILLER_19_225
*381 FILLER_19_237
*382 FILLER_19_249
*383 FILLER_19_261
*384 FILLER_19_27
*385 FILLER_19_273
*386 FILLER_19_279
*387 FILLER_19_281
*388 FILLER_19_293
*389 FILLER_19_3
*390 FILLER_19_39
*391 FILLER_19_51
*392 FILLER_19_55
*393 FILLER_19_57
*394 FILLER_19_69
*395 FILLER_19_81
*396 FILLER_19_93
*397 FILLER_1_105
*398 FILLER_1_111
*399 FILLER_1_113
*400 FILLER_1_125
*401 FILLER_1_137
*402 FILLER_1_149
*403 FILLER_1_15
*404 FILLER_1_161
*405 FILLER_1_167
*406 FILLER_1_169
*407 FILLER_1_181
*408 FILLER_1_193
*409 FILLER_1_205
*410 FILLER_1_217
*411 FILLER_1_223
*412 FILLER_1_225
*413 FILLER_1_237
*414 FILLER_1_249
*415 FILLER_1_261
*416 FILLER_1_27
*417 FILLER_1_273
*418 FILLER_1_279
*419 FILLER_1_281
*420 FILLER_1_293
*421 FILLER_1_3
*422 FILLER_1_39
*423 FILLER_1_51
*424 FILLER_1_55
*425 FILLER_1_57
*426 FILLER_1_69
*427 FILLER_1_81
*428 FILLER_1_93
*429 FILLER_20_109
*430 FILLER_20_121
*431 FILLER_20_133
*432 FILLER_20_139
*433 FILLER_20_141
*434 FILLER_20_15
*435 FILLER_20_153
*436 FILLER_20_165
*437 FILLER_20_177
*438 FILLER_20_189
*439 FILLER_20_195
*440 FILLER_20_197
*441 FILLER_20_209
*442 FILLER_20_221
*443 FILLER_20_233
*444 FILLER_20_245
*445 FILLER_20_251
*446 FILLER_20_253
*447 FILLER_20_265
*448 FILLER_20_27
*449 FILLER_20_277
*450 FILLER_20_289
*451 FILLER_20_29
*452 FILLER_20_297
*453 FILLER_20_3
*454 FILLER_20_41
*455 FILLER_20_53
*456 FILLER_20_65
*457 FILLER_20_77
*458 FILLER_20_83
*459 FILLER_20_85
*460 FILLER_20_97
*461 FILLER_21_105
*462 FILLER_21_111
*463 FILLER_21_113
*464 FILLER_21_125
*465 FILLER_21_137
*466 FILLER_21_149
*467 FILLER_21_15
*468 FILLER_21_161
*469 FILLER_21_167
*470 FILLER_21_169
*471 FILLER_21_181
*472 FILLER_21_193
*473 FILLER_21_205
*474 FILLER_21_217
*475 FILLER_21_223
*476 FILLER_21_225
*477 FILLER_21_237
*478 FILLER_21_249
*479 FILLER_21_261
*480 FILLER_21_27
*481 FILLER_21_273
*482 FILLER_21_279
*483 FILLER_21_281
*484 FILLER_21_293
*485 FILLER_21_3
*486 FILLER_21_39
*487 FILLER_21_51
*488 FILLER_21_55
*489 FILLER_21_57
*490 FILLER_21_69
*491 FILLER_21_81
*492 FILLER_21_93
*493 FILLER_22_109
*494 FILLER_22_121
*495 FILLER_22_133
*496 FILLER_22_139
*497 FILLER_22_141
*498 FILLER_22_15
*499 FILLER_22_153
*500 FILLER_22_165
*501 FILLER_22_177
*502 FILLER_22_189
*503 FILLER_22_195
*504 FILLER_22_197
*505 FILLER_22_209
*506 FILLER_22_221
*507 FILLER_22_233
*508 FILLER_22_245
*509 FILLER_22_251
*510 FILLER_22_253
*511 FILLER_22_265
*512 FILLER_22_27
*513 FILLER_22_277
*514 FILLER_22_289
*515 FILLER_22_29
*516 FILLER_22_297
*517 FILLER_22_3
*518 FILLER_22_41
*519 FILLER_22_53
*520 FILLER_22_65
*521 FILLER_22_77
*522 FILLER_22_83
*523 FILLER_22_85
*524 FILLER_22_97
*525 FILLER_23_105
*526 FILLER_23_111
*527 FILLER_23_113
*528 FILLER_23_125
*529 FILLER_23_137
*530 FILLER_23_149
*531 FILLER_23_15
*532 FILLER_23_161
*533 FILLER_23_167
*534 FILLER_23_169
*535 FILLER_23_181
*536 FILLER_23_193
*537 FILLER_23_205
*538 FILLER_23_217
*539 FILLER_23_223
*540 FILLER_23_225
*541 FILLER_23_237
*542 FILLER_23_249
*543 FILLER_23_261
*544 FILLER_23_27
*545 FILLER_23_273
*546 FILLER_23_279
*547 FILLER_23_281
*548 FILLER_23_293
*549 FILLER_23_3
*550 FILLER_23_39
*551 FILLER_23_51
*552 FILLER_23_55
*553 FILLER_23_57
*554 FILLER_23_69
*555 FILLER_23_81
*556 FILLER_23_93
*557 FILLER_24_109
*558 FILLER_24_121
*559 FILLER_24_133
*560 FILLER_24_139
*561 FILLER_24_141
*562 FILLER_24_15
*563 FILLER_24_153
*564 FILLER_24_165
*565 FILLER_24_177
*566 FILLER_24_189
*567 FILLER_24_195
*568 FILLER_24_197
*569 FILLER_24_209
*570 FILLER_24_221
*571 FILLER_24_233
*572 FILLER_24_245
*573 FILLER_24_251
*574 FILLER_24_253
*575 FILLER_24_265
*576 FILLER_24_27
*577 FILLER_24_277
*578 FILLER_24_289
*579 FILLER_24_29
*580 FILLER_24_297
*581 FILLER_24_3
*582 FILLER_24_41
*583 FILLER_24_53
*584 FILLER_24_65
*585 FILLER_24_77
*586 FILLER_24_83
*587 FILLER_24_85
*588 FILLER_24_97
*589 FILLER_25_105
*590 FILLER_25_111
*591 FILLER_25_113
*592 FILLER_25_125
*593 FILLER_25_137
*594 FILLER_25_149
*595 FILLER_25_15
*596 FILLER_25_161
*597 FILLER_25_167
*598 FILLER_25_169
*599 FILLER_25_181
*600 FILLER_25_193
*601 FILLER_25_205
*602 FILLER_25_217
*603 FILLER_25_223
*604 FILLER_25_225
*605 FILLER_25_237
*606 FILLER_25_249
*607 FILLER_25_261
*608 FILLER_25_27
*609 FILLER_25_273
*610 FILLER_25_279
*611 FILLER_25_281
*612 FILLER_25_293
*613 FILLER_25_3
*614 FILLER_25_39
*615 FILLER_25_51
*616 FILLER_25_55
*617 FILLER_25_57
*618 FILLER_25_69
*619 FILLER_25_81
*620 FILLER_25_93
*621 FILLER_26_109
*622 FILLER_26_121
*623 FILLER_26_133
*624 FILLER_26_139
*625 FILLER_26_141
*626 FILLER_26_15
*627 FILLER_26_153
*628 FILLER_26_165
*629 FILLER_26_177
*630 FILLER_26_189
*631 FILLER_26_195
*632 FILLER_26_197
*633 FILLER_26_209
*634 FILLER_26_221
*635 FILLER_26_233
*636 FILLER_26_245
*637 FILLER_26_251
*638 FILLER_26_253
*639 FILLER_26_265
*640 FILLER_26_27
*641 FILLER_26_277
*642 FILLER_26_289
*643 FILLER_26_29
*644 FILLER_26_297
*645 FILLER_26_3
*646 FILLER_26_41
*647 FILLER_26_53
*648 FILLER_26_65
*649 FILLER_26_77
*650 FILLER_26_83
*651 FILLER_26_85
*652 FILLER_26_97
*653 FILLER_27_105
*654 FILLER_27_111
*655 FILLER_27_113
*656 FILLER_27_125
*657 FILLER_27_137
*658 FILLER_27_149
*659 FILLER_27_15
*660 FILLER_27_161
*661 FILLER_27_167
*662 FILLER_27_169
*663 FILLER_27_181
*664 FILLER_27_193
*665 FILLER_27_205
*666 FILLER_27_217
*667 FILLER_27_223
*668 FILLER_27_225
*669 FILLER_27_237
*670 FILLER_27_249
*671 FILLER_27_261
*672 FILLER_27_27
*673 FILLER_27_273
*674 FILLER_27_279
*675 FILLER_27_281
*676 FILLER_27_293
*677 FILLER_27_3
*678 FILLER_27_39
*679 FILLER_27_51
*680 FILLER_27_55
*681 FILLER_27_57
*682 FILLER_27_69
*683 FILLER_27_81
*684 FILLER_27_93
*685 FILLER_28_109
*686 FILLER_28_121
*687 FILLER_28_133
*688 FILLER_28_139
*689 FILLER_28_141
*690 FILLER_28_15
*691 FILLER_28_153
*692 FILLER_28_165
*693 FILLER_28_177
*694 FILLER_28_189
*695 FILLER_28_195
*696 FILLER_28_197
*697 FILLER_28_209
*698 FILLER_28_221
*699 FILLER_28_233
*700 FILLER_28_245
*701 FILLER_28_251
*702 FILLER_28_253
*703 FILLER_28_265
*704 FILLER_28_27
*705 FILLER_28_277
*706 FILLER_28_289
*707 FILLER_28_29
*708 FILLER_28_297
*709 FILLER_28_3
*710 FILLER_28_41
*711 FILLER_28_53
*712 FILLER_28_65
*713 FILLER_28_77
*714 FILLER_28_83
*715 FILLER_28_85
*716 FILLER_28_97
*717 FILLER_29_105
*718 FILLER_29_111
*719 FILLER_29_113
*720 FILLER_29_125
*721 FILLER_29_137
*722 FILLER_29_149
*723 FILLER_29_161
*724 FILLER_29_167
*725 FILLER_29_169
*726 FILLER_29_181
*727 FILLER_29_193
*728 FILLER_29_205
*729 FILLER_29_21
*730 FILLER_29_217
*731 FILLER_29_223
*732 FILLER_29_225
*733 FILLER_29_237
*734 FILLER_29_249
*735 FILLER_29_261
*736 FILLER_29_273
*737 FILLER_29_279
*738 FILLER_29_281
*739 FILLER_29_293
*740 FILLER_29_3
*741 FILLER_29_33
*742 FILLER_29_45
*743 FILLER_29_53
*744 FILLER_29_57
*745 FILLER_29_69
*746 FILLER_29_81
*747 FILLER_29_9
*748 FILLER_29_93
*749 FILLER_2_109
*750 FILLER_2_121
*751 FILLER_2_133
*752 FILLER_2_139
*753 FILLER_2_141
*754 FILLER_2_15
*755 FILLER_2_153
*756 FILLER_2_165
*757 FILLER_2_177
*758 FILLER_2_189
*759 FILLER_2_195
*760 FILLER_2_197
*761 FILLER_2_209
*762 FILLER_2_221
*763 FILLER_2_233
*764 FILLER_2_245
*765 FILLER_2_251
*766 FILLER_2_253
*767 FILLER_2_265
*768 FILLER_2_27
*769 FILLER_2_277
*770 FILLER_2_289
*771 FILLER_2_29
*772 FILLER_2_297
*773 FILLER_2_3
*774 FILLER_2_41
*775 FILLER_2_53
*776 FILLER_2_65
*777 FILLER_2_77
*778 FILLER_2_83
*779 FILLER_2_85
*780 FILLER_2_97
*781 FILLER_30_109
*782 FILLER_30_12
*783 FILLER_30_121
*784 FILLER_30_133
*785 FILLER_30_139
*786 FILLER_30_141
*787 FILLER_30_153
*788 FILLER_30_165
*789 FILLER_30_177
*790 FILLER_30_189
*791 FILLER_30_19
*792 FILLER_30_195
*793 FILLER_30_197
*794 FILLER_30_209
*795 FILLER_30_221
*796 FILLER_30_233
*797 FILLER_30_245
*798 FILLER_30_251
*799 FILLER_30_253
*800 FILLER_30_265
*801 FILLER_30_27
*802 FILLER_30_277
*803 FILLER_30_289
*804 FILLER_30_29
*805 FILLER_30_297
*806 FILLER_30_3
*807 FILLER_30_41
*808 FILLER_30_53
*809 FILLER_30_65
*810 FILLER_30_77
*811 FILLER_30_83
*812 FILLER_30_85
*813 FILLER_30_97
*814 FILLER_31_105
*815 FILLER_31_111
*816 FILLER_31_113
*817 FILLER_31_125
*818 FILLER_31_137
*819 FILLER_31_149
*820 FILLER_31_161
*821 FILLER_31_167
*822 FILLER_31_169
*823 FILLER_31_181
*824 FILLER_31_193
*825 FILLER_31_205
*826 FILLER_31_217
*827 FILLER_31_223
*828 FILLER_31_225
*829 FILLER_31_237
*830 FILLER_31_249
*831 FILLER_31_25
*832 FILLER_31_261
*833 FILLER_31_273
*834 FILLER_31_279
*835 FILLER_31_281
*836 FILLER_31_293
*837 FILLER_31_3
*838 FILLER_31_37
*839 FILLER_31_49
*840 FILLER_31_55
*841 FILLER_31_57
*842 FILLER_31_69
*843 FILLER_31_81
*844 FILLER_31_93
*845 FILLER_32_109
*846 FILLER_32_11
*847 FILLER_32_121
*848 FILLER_32_133
*849 FILLER_32_139
*850 FILLER_32_141
*851 FILLER_32_153
*852 FILLER_32_165
*853 FILLER_32_177
*854 FILLER_32_189
*855 FILLER_32_19
*856 FILLER_32_195
*857 FILLER_32_197
*858 FILLER_32_209
*859 FILLER_32_221
*860 FILLER_32_233
*861 FILLER_32_245
*862 FILLER_32_251
*863 FILLER_32_253
*864 FILLER_32_265
*865 FILLER_32_27
*866 FILLER_32_277
*867 FILLER_32_289
*868 FILLER_32_29
*869 FILLER_32_297
*870 FILLER_32_3
*871 FILLER_32_41
*872 FILLER_32_53
*873 FILLER_32_65
*874 FILLER_32_77
*875 FILLER_32_83
*876 FILLER_32_85
*877 FILLER_32_97
*878 FILLER_33_105
*879 FILLER_33_111
*880 FILLER_33_113
*881 FILLER_33_125
*882 FILLER_33_137
*883 FILLER_33_14
*884 FILLER_33_149
*885 FILLER_33_161
*886 FILLER_33_167
*887 FILLER_33_169
*888 FILLER_33_181
*889 FILLER_33_193
*890 FILLER_33_205
*891 FILLER_33_217
*892 FILLER_33_223
*893 FILLER_33_225
*894 FILLER_33_23
*895 FILLER_33_237
*896 FILLER_33_249
*897 FILLER_33_261
*898 FILLER_33_273
*899 FILLER_33_279
*900 FILLER_33_281
*901 FILLER_33_293
*902 FILLER_33_3
*903 FILLER_33_30
*904 FILLER_33_42
*905 FILLER_33_54
*906 FILLER_33_57
*907 FILLER_33_69
*908 FILLER_33_7
*909 FILLER_33_81
*910 FILLER_33_93
*911 FILLER_34_109
*912 FILLER_34_121
*913 FILLER_34_133
*914 FILLER_34_139
*915 FILLER_34_141
*916 FILLER_34_153
*917 FILLER_34_165
*918 FILLER_34_177
*919 FILLER_34_189
*920 FILLER_34_195
*921 FILLER_34_197
*922 FILLER_34_209
*923 FILLER_34_221
*924 FILLER_34_233
*925 FILLER_34_245
*926 FILLER_34_251
*927 FILLER_34_253
*928 FILLER_34_26
*929 FILLER_34_265
*930 FILLER_34_277
*931 FILLER_34_289
*932 FILLER_34_29
*933 FILLER_34_297
*934 FILLER_34_3
*935 FILLER_34_35
*936 FILLER_34_47
*937 FILLER_34_59
*938 FILLER_34_71
*939 FILLER_34_83
*940 FILLER_34_85
*941 FILLER_34_97
*942 FILLER_35_105
*943 FILLER_35_111
*944 FILLER_35_113
*945 FILLER_35_12
*946 FILLER_35_125
*947 FILLER_35_137
*948 FILLER_35_149
*949 FILLER_35_161
*950 FILLER_35_167
*951 FILLER_35_169
*952 FILLER_35_181
*953 FILLER_35_193
*954 FILLER_35_205
*955 FILLER_35_217
*956 FILLER_35_223
*957 FILLER_35_225
*958 FILLER_35_237
*959 FILLER_35_249
*960 FILLER_35_261
*961 FILLER_35_273
*962 FILLER_35_279
*963 FILLER_35_281
*964 FILLER_35_293
*965 FILLER_35_3
*966 FILLER_35_36
*967 FILLER_35_43
*968 FILLER_35_55
*969 FILLER_35_57
*970 FILLER_35_69
*971 FILLER_35_81
*972 FILLER_35_93
*973 FILLER_36_109
*974 FILLER_36_121
*975 FILLER_36_133
*976 FILLER_36_139
*977 FILLER_36_141
*978 FILLER_36_153
*979 FILLER_36_165
*980 FILLER_36_177
*981 FILLER_36_189
*982 FILLER_36_195
*983 FILLER_36_197
*984 FILLER_36_209
*985 FILLER_36_221
*986 FILLER_36_233
*987 FILLER_36_245
*988 FILLER_36_25
*989 FILLER_36_251
*990 FILLER_36_253
*991 FILLER_36_265
*992 FILLER_36_277
*993 FILLER_36_289
*994 FILLER_36_29
*995 FILLER_36_297
*996 FILLER_36_3
*997 FILLER_36_37
*998 FILLER_36_49
*999 FILLER_36_61
*1000 FILLER_36_73
*1001 FILLER_36_81
*1002 FILLER_36_85
*1003 FILLER_36_97
*1004 FILLER_37_105
*1005 FILLER_37_111
*1006 FILLER_37_113
*1007 FILLER_37_125
*1008 FILLER_37_137
*1009 FILLER_37_149
*1010 FILLER_37_161
*1011 FILLER_37_167
*1012 FILLER_37_169
*1013 FILLER_37_181
*1014 FILLER_37_193
*1015 FILLER_37_205
*1016 FILLER_37_217
*1017 FILLER_37_223
*1018 FILLER_37_225
*1019 FILLER_37_237
*1020 FILLER_37_249
*1021 FILLER_37_261
*1022 FILLER_37_273
*1023 FILLER_37_279
*1024 FILLER_37_281
*1025 FILLER_37_293
*1026 FILLER_37_3
*1027 FILLER_37_34
*1028 FILLER_37_46
*1029 FILLER_37_54
*1030 FILLER_37_57
*1031 FILLER_37_69
*1032 FILLER_37_8
*1033 FILLER_37_81
*1034 FILLER_37_93
*1035 FILLER_38_109
*1036 FILLER_38_121
*1037 FILLER_38_133
*1038 FILLER_38_139
*1039 FILLER_38_141
*1040 FILLER_38_153
*1041 FILLER_38_165
*1042 FILLER_38_177
*1043 FILLER_38_189
*1044 FILLER_38_195
*1045 FILLER_38_197
*1046 FILLER_38_209
*1047 FILLER_38_221
*1048 FILLER_38_233
*1049 FILLER_38_245
*1050 FILLER_38_25
*1051 FILLER_38_251
*1052 FILLER_38_253
*1053 FILLER_38_265
*1054 FILLER_38_277
*1055 FILLER_38_289
*1056 FILLER_38_29
*1057 FILLER_38_297
*1058 FILLER_38_3
*1059 FILLER_38_34
*1060 FILLER_38_46
*1061 FILLER_38_58
*1062 FILLER_38_70
*1063 FILLER_38_82
*1064 FILLER_38_85
*1065 FILLER_38_97
*1066 FILLER_39_105
*1067 FILLER_39_111
*1068 FILLER_39_113
*1069 FILLER_39_125
*1070 FILLER_39_137
*1071 FILLER_39_149
*1072 FILLER_39_15
*1073 FILLER_39_161
*1074 FILLER_39_167
*1075 FILLER_39_169
*1076 FILLER_39_181
*1077 FILLER_39_193
*1078 FILLER_39_205
*1079 FILLER_39_217
*1080 FILLER_39_223
*1081 FILLER_39_225
*1082 FILLER_39_23
*1083 FILLER_39_237
*1084 FILLER_39_249
*1085 FILLER_39_261
*1086 FILLER_39_273
*1087 FILLER_39_279
*1088 FILLER_39_281
*1089 FILLER_39_293
*1090 FILLER_39_3
*1091 FILLER_39_35
*1092 FILLER_39_47
*1093 FILLER_39_55
*1094 FILLER_39_57
*1095 FILLER_39_69
*1096 FILLER_39_7
*1097 FILLER_39_81
*1098 FILLER_39_93
*1099 FILLER_3_105
*1100 FILLER_3_111
*1101 FILLER_3_113
*1102 FILLER_3_125
*1103 FILLER_3_137
*1104 FILLER_3_149
*1105 FILLER_3_15
*1106 FILLER_3_161
*1107 FILLER_3_167
*1108 FILLER_3_169
*1109 FILLER_3_181
*1110 FILLER_3_193
*1111 FILLER_3_205
*1112 FILLER_3_217
*1113 FILLER_3_223
*1114 FILLER_3_225
*1115 FILLER_3_237
*1116 FILLER_3_249
*1117 FILLER_3_261
*1118 FILLER_3_27
*1119 FILLER_3_273
*1120 FILLER_3_279
*1121 FILLER_3_281
*1122 FILLER_3_293
*1123 FILLER_3_3
*1124 FILLER_3_39
*1125 FILLER_3_51
*1126 FILLER_3_55
*1127 FILLER_3_57
*1128 FILLER_3_69
*1129 FILLER_3_81
*1130 FILLER_3_93
*1131 FILLER_40_109
*1132 FILLER_40_12
*1133 FILLER_40_121
*1134 FILLER_40_133
*1135 FILLER_40_139
*1136 FILLER_40_141
*1137 FILLER_40_153
*1138 FILLER_40_165
*1139 FILLER_40_177
*1140 FILLER_40_189
*1141 FILLER_40_19
*1142 FILLER_40_195
*1143 FILLER_40_197
*1144 FILLER_40_209
*1145 FILLER_40_221
*1146 FILLER_40_233
*1147 FILLER_40_245
*1148 FILLER_40_251
*1149 FILLER_40_253
*1150 FILLER_40_26
*1151 FILLER_40_265
*1152 FILLER_40_277
*1153 FILLER_40_289
*1154 FILLER_40_29
*1155 FILLER_40_297
*1156 FILLER_40_3
*1157 FILLER_40_41
*1158 FILLER_40_53
*1159 FILLER_40_65
*1160 FILLER_40_77
*1161 FILLER_40_83
*1162 FILLER_40_85
*1163 FILLER_40_97
*1164 FILLER_41_105
*1165 FILLER_41_111
*1166 FILLER_41_113
*1167 FILLER_41_125
*1168 FILLER_41_137
*1169 FILLER_41_149
*1170 FILLER_41_161
*1171 FILLER_41_167
*1172 FILLER_41_169
*1173 FILLER_41_17
*1174 FILLER_41_181
*1175 FILLER_41_193
*1176 FILLER_41_205
*1177 FILLER_41_217
*1178 FILLER_41_223
*1179 FILLER_41_225
*1180 FILLER_41_237
*1181 FILLER_41_249
*1182 FILLER_41_261
*1183 FILLER_41_273
*1184 FILLER_41_279
*1185 FILLER_41_281
*1186 FILLER_41_29
*1187 FILLER_41_293
*1188 FILLER_41_3
*1189 FILLER_41_41
*1190 FILLER_41_53
*1191 FILLER_41_57
*1192 FILLER_41_69
*1193 FILLER_41_81
*1194 FILLER_41_9
*1195 FILLER_41_93
*1196 FILLER_42_109
*1197 FILLER_42_121
*1198 FILLER_42_133
*1199 FILLER_42_139
*1200 FILLER_42_141
*1201 FILLER_42_15
*1202 FILLER_42_153
*1203 FILLER_42_165
*1204 FILLER_42_177
*1205 FILLER_42_189
*1206 FILLER_42_195
*1207 FILLER_42_197
*1208 FILLER_42_209
*1209 FILLER_42_221
*1210 FILLER_42_233
*1211 FILLER_42_245
*1212 FILLER_42_251
*1213 FILLER_42_253
*1214 FILLER_42_265
*1215 FILLER_42_27
*1216 FILLER_42_277
*1217 FILLER_42_289
*1218 FILLER_42_29
*1219 FILLER_42_297
*1220 FILLER_42_3
*1221 FILLER_42_41
*1222 FILLER_42_53
*1223 FILLER_42_65
*1224 FILLER_42_77
*1225 FILLER_42_83
*1226 FILLER_42_85
*1227 FILLER_42_97
*1228 FILLER_43_105
*1229 FILLER_43_111
*1230 FILLER_43_113
*1231 FILLER_43_125
*1232 FILLER_43_137
*1233 FILLER_43_149
*1234 FILLER_43_15
*1235 FILLER_43_161
*1236 FILLER_43_167
*1237 FILLER_43_169
*1238 FILLER_43_181
*1239 FILLER_43_193
*1240 FILLER_43_205
*1241 FILLER_43_217
*1242 FILLER_43_223
*1243 FILLER_43_225
*1244 FILLER_43_237
*1245 FILLER_43_249
*1246 FILLER_43_261
*1247 FILLER_43_27
*1248 FILLER_43_273
*1249 FILLER_43_279
*1250 FILLER_43_281
*1251 FILLER_43_293
*1252 FILLER_43_3
*1253 FILLER_43_39
*1254 FILLER_43_51
*1255 FILLER_43_55
*1256 FILLER_43_57
*1257 FILLER_43_69
*1258 FILLER_43_81
*1259 FILLER_43_93
*1260 FILLER_44_109
*1261 FILLER_44_121
*1262 FILLER_44_133
*1263 FILLER_44_139
*1264 FILLER_44_141
*1265 FILLER_44_15
*1266 FILLER_44_153
*1267 FILLER_44_165
*1268 FILLER_44_177
*1269 FILLER_44_189
*1270 FILLER_44_195
*1271 FILLER_44_197
*1272 FILLER_44_209
*1273 FILLER_44_221
*1274 FILLER_44_233
*1275 FILLER_44_245
*1276 FILLER_44_251
*1277 FILLER_44_253
*1278 FILLER_44_265
*1279 FILLER_44_27
*1280 FILLER_44_277
*1281 FILLER_44_289
*1282 FILLER_44_29
*1283 FILLER_44_297
*1284 FILLER_44_3
*1285 FILLER_44_41
*1286 FILLER_44_53
*1287 FILLER_44_65
*1288 FILLER_44_77
*1289 FILLER_44_83
*1290 FILLER_44_85
*1291 FILLER_44_97
*1292 FILLER_45_105
*1293 FILLER_45_111
*1294 FILLER_45_113
*1295 FILLER_45_125
*1296 FILLER_45_137
*1297 FILLER_45_149
*1298 FILLER_45_161
*1299 FILLER_45_167
*1300 FILLER_45_169
*1301 FILLER_45_181
*1302 FILLER_45_193
*1303 FILLER_45_205
*1304 FILLER_45_21
*1305 FILLER_45_217
*1306 FILLER_45_223
*1307 FILLER_45_225
*1308 FILLER_45_237
*1309 FILLER_45_249
*1310 FILLER_45_261
*1311 FILLER_45_273
*1312 FILLER_45_279
*1313 FILLER_45_281
*1314 FILLER_45_293
*1315 FILLER_45_3
*1316 FILLER_45_33
*1317 FILLER_45_45
*1318 FILLER_45_53
*1319 FILLER_45_57
*1320 FILLER_45_69
*1321 FILLER_45_81
*1322 FILLER_45_9
*1323 FILLER_45_93
*1324 FILLER_46_109
*1325 FILLER_46_121
*1326 FILLER_46_133
*1327 FILLER_46_139
*1328 FILLER_46_141
*1329 FILLER_46_15
*1330 FILLER_46_153
*1331 FILLER_46_165
*1332 FILLER_46_177
*1333 FILLER_46_189
*1334 FILLER_46_195
*1335 FILLER_46_197
*1336 FILLER_46_209
*1337 FILLER_46_221
*1338 FILLER_46_233
*1339 FILLER_46_245
*1340 FILLER_46_251
*1341 FILLER_46_253
*1342 FILLER_46_265
*1343 FILLER_46_27
*1344 FILLER_46_277
*1345 FILLER_46_289
*1346 FILLER_46_29
*1347 FILLER_46_297
*1348 FILLER_46_3
*1349 FILLER_46_41
*1350 FILLER_46_53
*1351 FILLER_46_65
*1352 FILLER_46_77
*1353 FILLER_46_83
*1354 FILLER_46_85
*1355 FILLER_46_97
*1356 FILLER_47_105
*1357 FILLER_47_11
*1358 FILLER_47_111
*1359 FILLER_47_113
*1360 FILLER_47_125
*1361 FILLER_47_137
*1362 FILLER_47_149
*1363 FILLER_47_161
*1364 FILLER_47_167
*1365 FILLER_47_169
*1366 FILLER_47_181
*1367 FILLER_47_193
*1368 FILLER_47_205
*1369 FILLER_47_217
*1370 FILLER_47_223
*1371 FILLER_47_225
*1372 FILLER_47_23
*1373 FILLER_47_237
*1374 FILLER_47_249
*1375 FILLER_47_261
*1376 FILLER_47_273
*1377 FILLER_47_279
*1378 FILLER_47_281
*1379 FILLER_47_293
*1380 FILLER_47_3
*1381 FILLER_47_35
*1382 FILLER_47_47
*1383 FILLER_47_55
*1384 FILLER_47_57
*1385 FILLER_47_69
*1386 FILLER_47_7
*1387 FILLER_47_81
*1388 FILLER_47_93
*1389 FILLER_48_109
*1390 FILLER_48_121
*1391 FILLER_48_133
*1392 FILLER_48_139
*1393 FILLER_48_141
*1394 FILLER_48_153
*1395 FILLER_48_165
*1396 FILLER_48_177
*1397 FILLER_48_189
*1398 FILLER_48_195
*1399 FILLER_48_197
*1400 FILLER_48_209
*1401 FILLER_48_21
*1402 FILLER_48_221
*1403 FILLER_48_233
*1404 FILLER_48_245
*1405 FILLER_48_251
*1406 FILLER_48_253
*1407 FILLER_48_265
*1408 FILLER_48_27
*1409 FILLER_48_277
*1410 FILLER_48_289
*1411 FILLER_48_29
*1412 FILLER_48_297
*1413 FILLER_48_3
*1414 FILLER_48_41
*1415 FILLER_48_53
*1416 FILLER_48_65
*1417 FILLER_48_77
*1418 FILLER_48_83
*1419 FILLER_48_85
*1420 FILLER_48_9
*1421 FILLER_48_97
*1422 FILLER_49_105
*1423 FILLER_49_111
*1424 FILLER_49_113
*1425 FILLER_49_125
*1426 FILLER_49_137
*1427 FILLER_49_149
*1428 FILLER_49_15
*1429 FILLER_49_161
*1430 FILLER_49_167
*1431 FILLER_49_169
*1432 FILLER_49_181
*1433 FILLER_49_193
*1434 FILLER_49_205
*1435 FILLER_49_217
*1436 FILLER_49_223
*1437 FILLER_49_225
*1438 FILLER_49_237
*1439 FILLER_49_249
*1440 FILLER_49_261
*1441 FILLER_49_27
*1442 FILLER_49_273
*1443 FILLER_49_279
*1444 FILLER_49_281
*1445 FILLER_49_293
*1446 FILLER_49_3
*1447 FILLER_49_39
*1448 FILLER_49_51
*1449 FILLER_49_55
*1450 FILLER_49_57
*1451 FILLER_49_69
*1452 FILLER_49_81
*1453 FILLER_49_93
*1454 FILLER_4_109
*1455 FILLER_4_121
*1456 FILLER_4_133
*1457 FILLER_4_139
*1458 FILLER_4_141
*1459 FILLER_4_15
*1460 FILLER_4_153
*1461 FILLER_4_165
*1462 FILLER_4_177
*1463 FILLER_4_189
*1464 FILLER_4_195
*1465 FILLER_4_197
*1466 FILLER_4_209
*1467 FILLER_4_221
*1468 FILLER_4_233
*1469 FILLER_4_245
*1470 FILLER_4_251
*1471 FILLER_4_253
*1472 FILLER_4_265
*1473 FILLER_4_27
*1474 FILLER_4_277
*1475 FILLER_4_289
*1476 FILLER_4_29
*1477 FILLER_4_297
*1478 FILLER_4_3
*1479 FILLER_4_41
*1480 FILLER_4_53
*1481 FILLER_4_65
*1482 FILLER_4_77
*1483 FILLER_4_83
*1484 FILLER_4_85
*1485 FILLER_4_97
*1486 FILLER_50_109
*1487 FILLER_50_121
*1488 FILLER_50_133
*1489 FILLER_50_139
*1490 FILLER_50_141
*1491 FILLER_50_15
*1492 FILLER_50_153
*1493 FILLER_50_165
*1494 FILLER_50_177
*1495 FILLER_50_189
*1496 FILLER_50_195
*1497 FILLER_50_197
*1498 FILLER_50_209
*1499 FILLER_50_221
*1500 FILLER_50_233
*1501 FILLER_50_245
*1502 FILLER_50_251
*1503 FILLER_50_253
*1504 FILLER_50_265
*1505 FILLER_50_27
*1506 FILLER_50_277
*1507 FILLER_50_289
*1508 FILLER_50_29
*1509 FILLER_50_297
*1510 FILLER_50_3
*1511 FILLER_50_41
*1512 FILLER_50_53
*1513 FILLER_50_65
*1514 FILLER_50_77
*1515 FILLER_50_83
*1516 FILLER_50_85
*1517 FILLER_50_97
*1518 FILLER_51_105
*1519 FILLER_51_111
*1520 FILLER_51_113
*1521 FILLER_51_125
*1522 FILLER_51_137
*1523 FILLER_51_149
*1524 FILLER_51_15
*1525 FILLER_51_161
*1526 FILLER_51_167
*1527 FILLER_51_169
*1528 FILLER_51_181
*1529 FILLER_51_193
*1530 FILLER_51_205
*1531 FILLER_51_217
*1532 FILLER_51_223
*1533 FILLER_51_225
*1534 FILLER_51_237
*1535 FILLER_51_249
*1536 FILLER_51_261
*1537 FILLER_51_27
*1538 FILLER_51_273
*1539 FILLER_51_279
*1540 FILLER_51_281
*1541 FILLER_51_293
*1542 FILLER_51_3
*1543 FILLER_51_39
*1544 FILLER_51_51
*1545 FILLER_51_55
*1546 FILLER_51_57
*1547 FILLER_51_69
*1548 FILLER_51_81
*1549 FILLER_51_93
*1550 FILLER_52_109
*1551 FILLER_52_121
*1552 FILLER_52_133
*1553 FILLER_52_139
*1554 FILLER_52_141
*1555 FILLER_52_15
*1556 FILLER_52_153
*1557 FILLER_52_165
*1558 FILLER_52_177
*1559 FILLER_52_189
*1560 FILLER_52_195
*1561 FILLER_52_197
*1562 FILLER_52_209
*1563 FILLER_52_221
*1564 FILLER_52_233
*1565 FILLER_52_245
*1566 FILLER_52_251
*1567 FILLER_52_253
*1568 FILLER_52_265
*1569 FILLER_52_27
*1570 FILLER_52_277
*1571 FILLER_52_289
*1572 FILLER_52_29
*1573 FILLER_52_297
*1574 FILLER_52_3
*1575 FILLER_52_41
*1576 FILLER_52_53
*1577 FILLER_52_65
*1578 FILLER_52_77
*1579 FILLER_52_83
*1580 FILLER_52_85
*1581 FILLER_52_97
*1582 FILLER_53_105
*1583 FILLER_53_111
*1584 FILLER_53_113
*1585 FILLER_53_125