*SPEF "ieee 1481-1999"
*DESIGN "vaishnavachath_rotary_toplevel"
*DATE "11:11:11 Fri 11 11, 1111"
*VENDOR "OpenRCX"
*PROGRAM "Parallel Extraction"
*VERSION "1.0"
*DESIGN_FLOW "NAME_SCOPE LOCAL" "PIN_CAP NONE"
*DIVIDER /
*DELIMITER :
*BUS_DELIMITER []
*T_UNIT 1 NS
*C_UNIT 1 PF
*R_UNIT 1 OHM
*L_UNIT 1 HENRY

*NAME_MAP
*1 io_in[0]
*2 io_in[1]
*3 io_in[2]
*4 io_in[3]
*5 io_in[4]
*6 io_in[5]
*7 io_in[6]
*8 io_in[7]
*9 io_out[0]
*10 io_out[1]
*11 io_out[2]
*12 io_out[3]
*13 io_out[4]
*14 io_out[5]
*15 io_out[6]
*16 net5
*19 _000_
*20 _001_
*21 _002_
*22 _003_
*23 _004_
*24 _005_
*25 _006_
*26 _007_
*27 _008_
*28 _009_
*29 _010_
*30 _011_
*31 _012_
*32 _013_
*33 _014_
*34 _015_
*35 _016_
*36 _017_
*37 _018_
*38 _019_
*39 _020_
*40 _021_
*41 _022_
*42 _023_
*43 _024_
*44 _025_
*45 _026_
*46 _027_
*47 _028_
*48 _029_
*49 _030_
*50 _031_
*51 _032_
*52 _033_
*53 _034_
*54 _035_
*55 _036_
*56 _037_
*57 _038_
*58 _039_
*59 _040_
*60 _041_
*61 _042_
*62 _043_
*63 _044_
*64 _045_
*65 _046_
*66 _047_
*67 _048_
*68 clk_msb_delayed
*69 clknet_0_io_in[0]
*70 clknet_1_0__leaf_io_in[0]
*71 clknet_1_1__leaf_io_in[0]
*72 counter\[0\]
*73 counter\[1\]
*74 counter\[2\]
*75 counter\[3\]
*76 enc_byte\[0\]
*77 enc_byte\[1\]
*78 enc_byte\[2\]
*79 enc_byte\[3\]
*80 net1
*81 net2
*82 net3
*83 net4
*84 rt_a
*85 rt_a_delayed
*86 rt_b
*87 rt_b_delayed
*88 FILLER_0_109
*89 FILLER_0_113
*90 FILLER_0_125
*91 FILLER_0_137
*92 FILLER_0_141
*93 FILLER_0_153
*94 FILLER_0_165
*95 FILLER_0_169
*96 FILLER_0_181
*97 FILLER_0_193
*98 FILLER_0_197
*99 FILLER_0_209
*100 FILLER_0_221
*101 FILLER_0_225
*102 FILLER_0_237
*103 FILLER_0_249
*104 FILLER_0_253
*105 FILLER_0_26
*106 FILLER_0_265
*107 FILLER_0_277
*108 FILLER_0_281
*109 FILLER_0_29
*110 FILLER_0_293
*111 FILLER_0_3
*112 FILLER_0_47
*113 FILLER_0_55
*114 FILLER_0_57
*115 FILLER_0_75
*116 FILLER_0_83
*117 FILLER_0_85
*118 FILLER_0_97
*119 FILLER_10_109
*120 FILLER_10_121
*121 FILLER_10_133
*122 FILLER_10_139
*123 FILLER_10_141
*124 FILLER_10_15
*125 FILLER_10_153
*126 FILLER_10_165
*127 FILLER_10_177
*128 FILLER_10_189
*129 FILLER_10_195
*130 FILLER_10_197
*131 FILLER_10_209
*132 FILLER_10_221
*133 FILLER_10_233
*134 FILLER_10_245
*135 FILLER_10_251
*136 FILLER_10_253
*137 FILLER_10_265
*138 FILLER_10_27
*139 FILLER_10_277
*140 FILLER_10_289
*141 FILLER_10_29
*142 FILLER_10_297
*143 FILLER_10_3
*144 FILLER_10_41
*145 FILLER_10_53
*146 FILLER_10_65
*147 FILLER_10_77
*148 FILLER_10_83
*149 FILLER_10_85
*150 FILLER_10_97
*151 FILLER_11_105
*152 FILLER_11_111
*153 FILLER_11_113
*154 FILLER_11_12
*155 FILLER_11_125
*156 FILLER_11_137
*157 FILLER_11_149
*158 FILLER_11_161
*159 FILLER_11_167
*160 FILLER_11_169
*161 FILLER_11_181
*162 FILLER_11_193
*163 FILLER_11_205
*164 FILLER_11_217
*165 FILLER_11_223
*166 FILLER_11_225
*167 FILLER_11_237
*168 FILLER_11_24
*169 FILLER_11_249
*170 FILLER_11_261
*171 FILLER_11_273
*172 FILLER_11_279
*173 FILLER_11_281
*174 FILLER_11_293
*175 FILLER_11_3
*176 FILLER_11_36
*177 FILLER_11_48
*178 FILLER_11_57
*179 FILLER_11_69
*180 FILLER_11_81
*181 FILLER_11_93
*182 FILLER_12_109
*183 FILLER_12_121
*184 FILLER_12_133
*185 FILLER_12_139
*186 FILLER_12_141
*187 FILLER_12_153
*188 FILLER_12_165
*189 FILLER_12_177
*190 FILLER_12_189
*191 FILLER_12_19
*192 FILLER_12_195
*193 FILLER_12_197
*194 FILLER_12_209
*195 FILLER_12_221
*196 FILLER_12_233
*197 FILLER_12_245
*198 FILLER_12_251
*199 FILLER_12_253
*200 FILLER_12_265
*201 FILLER_12_27
*202 FILLER_12_277
*203 FILLER_12_289
*204 FILLER_12_29
*205 FILLER_12_297
*206 FILLER_12_3
*207 FILLER_12_41
*208 FILLER_12_53
*209 FILLER_12_65
*210 FILLER_12_77
*211 FILLER_12_83
*212 FILLER_12_85
*213 FILLER_12_9
*214 FILLER_12_97
*215 FILLER_13_105
*216 FILLER_13_111
*217 FILLER_13_113
*218 FILLER_13_125
*219 FILLER_13_137
*220 FILLER_13_149
*221 FILLER_13_161
*222 FILLER_13_167
*223 FILLER_13_169
*224 FILLER_13_181
*225 FILLER_13_193
*226 FILLER_13_20
*227 FILLER_13_205
*228 FILLER_13_217
*229 FILLER_13_223
*230 FILLER_13_225
*231 FILLER_13_237
*232 FILLER_13_249
*233 FILLER_13_261
*234 FILLER_13_273
*235 FILLER_13_279
*236 FILLER_13_281
*237 FILLER_13_293
*238 FILLER_13_3
*239 FILLER_13_32
*240 FILLER_13_44
*241 FILLER_13_54
*242 FILLER_13_57
*243 FILLER_13_69
*244 FILLER_13_8
*245 FILLER_13_81
*246 FILLER_13_93
*247 FILLER_14_109
*248 FILLER_14_121
*249 FILLER_14_133
*250 FILLER_14_139
*251 FILLER_14_141
*252 FILLER_14_15
*253 FILLER_14_153
*254 FILLER_14_165
*255 FILLER_14_177
*256 FILLER_14_189
*257 FILLER_14_195
*258 FILLER_14_197
*259 FILLER_14_209
*260 FILLER_14_221
*261 FILLER_14_233
*262 FILLER_14_245
*263 FILLER_14_251
*264 FILLER_14_253
*265 FILLER_14_26
*266 FILLER_14_265
*267 FILLER_14_277
*268 FILLER_14_289
*269 FILLER_14_29
*270 FILLER_14_297
*271 FILLER_14_3
*272 FILLER_14_41
*273 FILLER_14_53
*274 FILLER_14_65
*275 FILLER_14_76
*276 FILLER_14_85
*277 FILLER_14_97
*278 FILLER_15_105
*279 FILLER_15_111
*280 FILLER_15_113
*281 FILLER_15_125
*282 FILLER_15_137
*283 FILLER_15_149
*284 FILLER_15_161
*285 FILLER_15_167
*286 FILLER_15_169
*287 FILLER_15_181
*288 FILLER_15_193
*289 FILLER_15_20
*290 FILLER_15_205
*291 FILLER_15_217
*292 FILLER_15_223
*293 FILLER_15_225
*294 FILLER_15_237
*295 FILLER_15_249
*296 FILLER_15_261
*297 FILLER_15_273
*298 FILLER_15_279
*299 FILLER_15_281
*300 FILLER_15_293
*301 FILLER_15_3
*302 FILLER_15_32
*303 FILLER_15_48
*304 FILLER_15_57
*305 FILLER_15_69
*306 FILLER_15_8
*307 FILLER_15_81
*308 FILLER_15_93
*309 FILLER_16_109
*310 FILLER_16_12
*311 FILLER_16_121
*312 FILLER_16_133
*313 FILLER_16_139
*314 FILLER_16_141
*315 FILLER_16_153
*316 FILLER_16_165
*317 FILLER_16_177
*318 FILLER_16_189
*319 FILLER_16_195
*320 FILLER_16_197
*321 FILLER_16_209
*322 FILLER_16_221
*323 FILLER_16_233
*324 FILLER_16_24
*325 FILLER_16_245
*326 FILLER_16_251
*327 FILLER_16_253
*328 FILLER_16_265
*329 FILLER_16_277
*330 FILLER_16_289
*331 FILLER_16_29
*332 FILLER_16_297
*333 FILLER_16_3
*334 FILLER_16_53
*335 FILLER_16_65
*336 FILLER_16_77
*337 FILLER_16_83
*338 FILLER_16_85
*339 FILLER_16_97
*340 FILLER_17_105
*341 FILLER_17_111
*342 FILLER_17_113
*343 FILLER_17_125
*344 FILLER_17_137
*345 FILLER_17_149
*346 FILLER_17_15
*347 FILLER_17_161
*348 FILLER_17_167
*349 FILLER_17_169
*350 FILLER_17_181
*351 FILLER_17_193
*352 FILLER_17_205
*353 FILLER_17_217
*354 FILLER_17_223
*355 FILLER_17_225
*356 FILLER_17_237
*357 FILLER_17_249
*358 FILLER_17_261
*359 FILLER_17_273
*360 FILLER_17_279
*361 FILLER_17_281
*362 FILLER_17_293
*363 FILLER_17_3
*364 FILLER_17_43
*365 FILLER_17_55
*366 FILLER_17_57
*367 FILLER_17_69
*368 FILLER_17_81
*369 FILLER_17_93
*370 FILLER_18_109
*371 FILLER_18_121
*372 FILLER_18_133
*373 FILLER_18_139
*374 FILLER_18_141
*375 FILLER_18_15
*376 FILLER_18_153
*377 FILLER_18_165
*378 FILLER_18_177
*379 FILLER_18_189
*380 FILLER_18_195
*381 FILLER_18_197
*382 FILLER_18_209
*383 FILLER_18_221
*384 FILLER_18_233
*385 FILLER_18_245
*386 FILLER_18_251
*387 FILLER_18_253
*388 FILLER_18_265
*389 FILLER_18_27
*390 FILLER_18_277
*391 FILLER_18_289
*392 FILLER_18_29
*393 FILLER_18_297
*394 FILLER_18_3
*395 FILLER_18_41
*396 FILLER_18_53
*397 FILLER_18_65
*398 FILLER_18_77
*399 FILLER_18_83
*400 FILLER_18_85
*401 FILLER_18_97
*402 FILLER_19_105
*403 FILLER_19_111
*404 FILLER_19_113
*405 FILLER_19_125
*406 FILLER_19_137
*407 FILLER_19_149
*408 FILLER_19_161
*409 FILLER_19_167
*410 FILLER_19_169
*411 FILLER_19_18
*412 FILLER_19_181
*413 FILLER_19_193
*414 FILLER_19_205
*415 FILLER_19_217
*416 FILLER_19_223
*417 FILLER_19_225
*418 FILLER_19_237
*419 FILLER_19_249
*420 FILLER_19_261
*421 FILLER_19_273
*422 FILLER_19_279
*423 FILLER_19_281
*424 FILLER_19_293
*425 FILLER_19_3
*426 FILLER_19_30
*427 FILLER_19_42
*428 FILLER_19_54
*429 FILLER_19_57
*430 FILLER_19_69
*431 FILLER_19_81
*432 FILLER_19_93
*433 FILLER_1_111
*434 FILLER_1_113
*435 FILLER_1_125
*436 FILLER_1_137
*437 FILLER_1_149
*438 FILLER_1_15
*439 FILLER_1_161
*440 FILLER_1_167
*441 FILLER_1_169
*442 FILLER_1_181
*443 FILLER_1_193
*444 FILLER_1_205
*445 FILLER_1_217
*446 FILLER_1_223
*447 FILLER_1_225
*448 FILLER_1_237
*449 FILLER_1_249
*450 FILLER_1_261
*451 FILLER_1_273
*452 FILLER_1_279
*453 FILLER_1_281
*454 FILLER_1_293
*455 FILLER_1_3
*456 FILLER_1_36
*457 FILLER_1_48
*458 FILLER_1_57
*459 FILLER_1_75
*460 FILLER_1_87
*461 FILLER_1_99
*462 FILLER_20_109
*463 FILLER_20_121
*464 FILLER_20_133
*465 FILLER_20_139
*466 FILLER_20_141
*467 FILLER_20_15
*468 FILLER_20_153
*469 FILLER_20_165
*470 FILLER_20_177
*471 FILLER_20_189
*472 FILLER_20_195
*473 FILLER_20_197
*474 FILLER_20_209
*475 FILLER_20_221
*476 FILLER_20_233
*477 FILLER_20_245
*478 FILLER_20_251
*479 FILLER_20_253
*480 FILLER_20_265
*481 FILLER_20_27
*482 FILLER_20_277
*483 FILLER_20_289
*484 FILLER_20_29
*485 FILLER_20_297
*486 FILLER_20_3
*487 FILLER_20_35
*488 FILLER_20_40
*489 FILLER_20_52
*490 FILLER_20_64
*491 FILLER_20_76
*492 FILLER_20_85
*493 FILLER_20_97
*494 FILLER_21_105
*495 FILLER_21_111
*496 FILLER_21_113
*497 FILLER_21_12
*498 FILLER_21_125
*499 FILLER_21_137
*500 FILLER_21_149
*501 FILLER_21_161
*502 FILLER_21_167
*503 FILLER_21_169
*504 FILLER_21_181
*505 FILLER_21_193
*506 FILLER_21_205
*507 FILLER_21_217
*508 FILLER_21_223
*509 FILLER_21_225
*510 FILLER_21_237
*511 FILLER_21_24
*512 FILLER_21_249
*513 FILLER_21_261
*514 FILLER_21_273
*515 FILLER_21_279
*516 FILLER_21_281
*517 FILLER_21_293
*518 FILLER_21_3
*519 FILLER_21_36
*520 FILLER_21_48
*521 FILLER_21_57
*522 FILLER_21_69
*523 FILLER_21_81
*524 FILLER_21_93
*525 FILLER_22_105
*526 FILLER_22_117
*527 FILLER_22_129
*528 FILLER_22_137
*529 FILLER_22_141
*530 FILLER_22_15
*531 FILLER_22_153
*532 FILLER_22_165
*533 FILLER_22_177
*534 FILLER_22_189
*535 FILLER_22_195
*536 FILLER_22_197
*537 FILLER_22_209
*538 FILLER_22_221
*539 FILLER_22_233
*540 FILLER_22_245
*541 FILLER_22_251
*542 FILLER_22_253
*543 FILLER_22_265
*544 FILLER_22_27
*545 FILLER_22_277
*546 FILLER_22_289
*547 FILLER_22_29
*548 FILLER_22_297
*549 FILLER_22_3
*550 FILLER_22_41
*551 FILLER_22_52
*552 FILLER_22_64
*553 FILLER_22_76
*554 FILLER_22_85
*555 FILLER_22_97
*556 FILLER_23_10
*557 FILLER_23_105
*558 FILLER_23_111
*559 FILLER_23_113
*560 FILLER_23_125
*561 FILLER_23_137
*562 FILLER_23_149
*563 FILLER_23_161
*564 FILLER_23_167
*565 FILLER_23_169
*566 FILLER_23_18
*567 FILLER_23_181
*568 FILLER_23_193
*569 FILLER_23_205
*570 FILLER_23_217
*571 FILLER_23_223
*572 FILLER_23_225
*573 FILLER_23_237
*574 FILLER_23_249
*575 FILLER_23_26
*576 FILLER_23_261
*577 FILLER_23_273
*578 FILLER_23_279
*579 FILLER_23_281
*580 FILLER_23_293
*581 FILLER_23_3
*582 FILLER_23_38
*583 FILLER_23_50
*584 FILLER_23_57
*585 FILLER_23_69
*586 FILLER_23_81
*587 FILLER_23_93
*588 FILLER_24_109
*589 FILLER_24_121
*590 FILLER_24_13
*591 FILLER_24_133
*592 FILLER_24_139
*593 FILLER_24_141
*594 FILLER_24_153
*595 FILLER_24_165
*596 FILLER_24_177
*597 FILLER_24_189
*598 FILLER_24_195
*599 FILLER_24_197
*600 FILLER_24_209
*601 FILLER_24_221
*602 FILLER_24_233
*603 FILLER_24_245
*604 FILLER_24_25
*605 FILLER_24_251
*606 FILLER_24_253
*607 FILLER_24_265
*608 FILLER_24_277
*609 FILLER_24_289
*610 FILLER_24_29
*611 FILLER_24_297
*612 FILLER_24_3
*613 FILLER_24_41
*614 FILLER_24_53
*615 FILLER_24_65
*616 FILLER_24_77
*617 FILLER_24_83
*618 FILLER_24_85
*619 FILLER_24_97
*620 FILLER_25_105
*621 FILLER_25_111
*622 FILLER_25_113
*623 FILLER_25_125
*624 FILLER_25_137
*625 FILLER_25_149
*626 FILLER_25_15
*627 FILLER_25_161
*628 FILLER_25_167
*629 FILLER_25_169
*630 FILLER_25_181
*631 FILLER_25_193
*632 FILLER_25_205
*633 FILLER_25_217
*634 FILLER_25_223
*635 FILLER_25_225
*636 FILLER_25_237
*637 FILLER_25_249
*638 FILLER_25_261
*639 FILLER_25_27
*640 FILLER_25_273
*641 FILLER_25_279
*642 FILLER_25_281
*643 FILLER_25_293
*644 FILLER_25_3
*645 FILLER_25_39
*646 FILLER_25_51
*647 FILLER_25_55
*648 FILLER_25_57
*649 FILLER_25_69
*650 FILLER_25_81
*651 FILLER_25_93
*652 FILLER_26_109
*653 FILLER_26_121
*654 FILLER_26_133
*655 FILLER_26_139
*656 FILLER_26_141
*657 FILLER_26_15
*658 FILLER_26_153
*659 FILLER_26_165
*660 FILLER_26_177
*661 FILLER_26_189
*662 FILLER_26_195
*663 FILLER_26_197
*664 FILLER_26_209
*665 FILLER_26_221
*666 FILLER_26_233
*667 FILLER_26_245
*668 FILLER_26_25
*669 FILLER_26_251
*670 FILLER_26_253
*671 FILLER_26_265
*672 FILLER_26_277
*673 FILLER_26_289
*674 FILLER_26_29
*675 FILLER_26_297
*676 FILLER_26_3
*677 FILLER_26_39
*678 FILLER_26_51
*679 FILLER_26_63
*680 FILLER_26_75
*681 FILLER_26_83
*682 FILLER_26_85
*683 FILLER_26_97
*684 FILLER_27_100
*685 FILLER_27_113
*686 FILLER_27_125
*687 FILLER_27_137
*688 FILLER_27_149
*689 FILLER_27_15
*690 FILLER_27_161
*691 FILLER_27_167
*692 FILLER_27_169
*693 FILLER_27_181
*694 FILLER_27_193
*695 FILLER_27_205
*696 FILLER_27_217
*697 FILLER_27_223
*698 FILLER_27_225
*699 FILLER_27_237
*700 FILLER_27_249
*701 FILLER_27_261
*702 FILLER_27_27
*703 FILLER_27_273
*704 FILLER_27_279
*705 FILLER_27_281
*706 FILLER_27_293
*707 FILLER_27_3
*708 FILLER_27_39
*709 FILLER_27_54
*710 FILLER_27_57
*711 FILLER_27_64
*712 FILLER_27_76
*713 FILLER_27_88
*714 FILLER_28_109
*715 FILLER_28_121
*716 FILLER_28_133
*717 FILLER_28_139
*718 FILLER_28_141
*719 FILLER_28_15
*720 FILLER_28_153
*721 FILLER_28_165
*722 FILLER_28_177
*723 FILLER_28_189
*724 FILLER_28_195
*725 FILLER_28_197
*726 FILLER_28_209
*727 FILLER_28_221
*728 FILLER_28_233
*729 FILLER_28_245
*730 FILLER_28_251
*731 FILLER_28_253
*732 FILLER_28_26
*733 FILLER_28_265
*734 FILLER_28_277
*735 FILLER_28_289
*736 FILLER_28_29
*737 FILLER_28_297
*738 FILLER_28_3
*739 FILLER_28_42
*740 FILLER_28_49
*741 FILLER_28_61
*742 FILLER_28_73
*743 FILLER_28_81
*744 FILLER_28_85
*745 FILLER_28_97
*746 FILLER_29_105
*747 FILLER_29_111
*748 FILLER_29_113
*749 FILLER_29_125
*750 FILLER_29_137
*751 FILLER_29_149
*752 FILLER_29_16
*753 FILLER_29_161
*754 FILLER_29_167
*755 FILLER_29_169
*756 FILLER_29_181
*757 FILLER_29_193
*758 FILLER_29_205
*759 FILLER_29_217
*760 FILLER_29_223
*761 FILLER_29_225
*762 FILLER_29_237
*763 FILLER_29_249
*764 FILLER_29_261
*765 FILLER_29_273
*766 FILLER_29_279
*767 FILLER_29_28
*768 FILLER_29_281
*769 FILLER_29_293
*770 FILLER_29_3
*771 FILLER_29_40
*772 FILLER_29_52
*773 FILLER_29_57
*774 FILLER_29_69
*775 FILLER_29_81
*776 FILLER_29_93
*777 FILLER_2_109
*778 FILLER_2_121
*779 FILLER_2_133
*780 FILLER_2_139
*781 FILLER_2_141
*782 FILLER_2_153
*783 FILLER_2_165
*784 FILLER_2_177
*785 FILLER_2_189
*786 FILLER_2_195
*787 FILLER_2_197
*788 FILLER_2_209
*789 FILLER_2_22
*790 FILLER_2_221
*791 FILLER_2_233
*792 FILLER_2_245
*793 FILLER_2_251
*794 FILLER_2_253
*795 FILLER_2_265
*796 FILLER_2_277
*797 FILLER_2_289
*798 FILLER_2_29
*799 FILLER_2_297
*800 FILLER_2_3
*801 FILLER_2_50
*802 FILLER_2_62
*803 FILLER_2_74
*804 FILLER_2_82
*805 FILLER_2_85
*806 FILLER_2_97
*807 FILLER_30_111
*808 FILLER_30_123
*809 FILLER_30_135
*810 FILLER_30_139
*811 FILLER_30_141
*812 FILLER_30_15
*813 FILLER_30_153
*814 FILLER_30_165
*815 FILLER_30_177
*816 FILLER_30_189
*817 FILLER_30_195
*818 FILLER_30_197
*819 FILLER_30_209
*820 FILLER_30_221
*821 FILLER_30_233
*822 FILLER_30_245
*823 FILLER_30_251
*824 FILLER_30_253
*825 FILLER_30_265
*826 FILLER_30_27
*827 FILLER_30_277
*828 FILLER_30_289
*829 FILLER_30_29
*830 FILLER_30_297
*831 FILLER_30_3
*832 FILLER_30_41
*833 FILLER_30_53
*834 FILLER_30_65
*835 FILLER_30_77
*836 FILLER_30_83
*837 FILLER_30_85
*838 FILLER_30_89
*839 FILLER_30_99
*840 FILLER_31_103
*841 FILLER_31_111
*842 FILLER_31_113
*843 FILLER_31_125
*844 FILLER_31_137
*845 FILLER_31_149
*846 FILLER_31_161
*847 FILLER_31_167
*848 FILLER_31_169
*849 FILLER_31_181
*850 FILLER_31_193
*851 FILLER_31_20
*852 FILLER_31_205
*853 FILLER_31_217
*854 FILLER_31_223
*855 FILLER_31_225
*856 FILLER_31_237
*857 FILLER_31_249
*858 FILLER_31_261
*859 FILLER_31_273
*860 FILLER_31_279
*861 FILLER_31_281
*862 FILLER_31_293
*863 FILLER_31_3
*864 FILLER_31_32
*865 FILLER_31_36
*866 FILLER_31_40
*867 FILLER_31_52
*868 FILLER_31_57
*869 FILLER_31_69
*870 FILLER_31_79
*871 FILLER_31_91
*872 FILLER_32_109
*873 FILLER_32_121
*874 FILLER_32_133
*875 FILLER_32_139
*876 FILLER_32_141
*877 FILLER_32_15
*878 FILLER_32_153
*879 FILLER_32_165
*880 FILLER_32_177
*881 FILLER_32_189
*882 FILLER_32_195
*883 FILLER_32_197
*884 FILLER_32_209
*885 FILLER_32_221
*886 FILLER_32_233
*887 FILLER_32_245
*888 FILLER_32_251
*889 FILLER_32_253
*890 FILLER_32_265
*891 FILLER_32_27
*892 FILLER_32_277
*893 FILLER_32_289
*894 FILLER_32_29
*895 FILLER_32_297
*896 FILLER_32_3
*897 FILLER_32_35
*898 FILLER_32_43
*899 FILLER_32_55
*900 FILLER_32_67
*901 FILLER_32_79
*902 FILLER_32_83
*903 FILLER_32_85
*904 FILLER_32_97
*905 FILLER_33_105
*906 FILLER_33_111
*907 FILLER_33_113
*908 FILLER_33_124
*909 FILLER_33_136
*910 FILLER_33_148
*911 FILLER_33_15
*912 FILLER_33_160
*913 FILLER_33_169
*914 FILLER_33_181
*915 FILLER_33_193
*916 FILLER_33_205
*917 FILLER_33_21
*918 FILLER_33_217
*919 FILLER_33_223
*920 FILLER_33_225
*921 FILLER_33_237
*922 FILLER_33_249
*923 FILLER_33_261
*924 FILLER_33_273
*925 FILLER_33_279
*926 FILLER_33_281
*927 FILLER_33_293
*928 FILLER_33_3
*929 FILLER_33_33
*930 FILLER_33_39
*931 FILLER_33_53
*932 FILLER_33_57
*933 FILLER_33_69
*934 FILLER_33_81
*935 FILLER_33_93
*936 FILLER_34_109
*937 FILLER_34_121
*938 FILLER_34_133
*939 FILLER_34_139
*940 FILLER_34_141
*941 FILLER_34_15
*942 FILLER_34_153
*943 FILLER_34_165
*944 FILLER_34_177
*945 FILLER_34_189
*946 FILLER_34_195
*947 FILLER_34_197
*948 FILLER_34_209
*949 FILLER_34_221
*950 FILLER_34_233
*951 FILLER_34_245
*952 FILLER_34_251
*953 FILLER_34_253
*954 FILLER_34_265
*955 FILLER_34_27
*956 FILLER_34_277
*957 FILLER_34_289
*958 FILLER_34_29
*959 FILLER_34_297
*960 FILLER_34_3
*961 FILLER_34_41
*962 FILLER_34_53
*963 FILLER_34_65
*964 FILLER_34_80
*965 FILLER_34_85
*966 FILLER_34_97
*967 FILLER_35_108
*968 FILLER_35_113
*969 FILLER_35_125
*970 FILLER_35_137
*971 FILLER_35_149
*972 FILLER_35_161
*973 FILLER_35_167
*974 FILLER_35_169
*975 FILLER_35_181
*976 FILLER_35_193
*977 FILLER_35_205
*978 FILLER_35_217
*979 FILLER_35_223
*980 FILLER_35_225
*981 FILLER_35_237
*982 FILLER_35_24
*983 FILLER_35_249
*984 FILLER_35_261
*985 FILLER_35_273
*986 FILLER_35_279
*987 FILLER_35_281
*988 FILLER_35_293
*989 FILLER_35_3
*990 FILLER_35_36
*991 FILLER_35_48
*992 FILLER_35_57
*993 FILLER_35_69
*994 FILLER_35_84
*995 FILLER_35_9
*996 FILLER_35_96
*997 FILLER_36_109
*998 FILLER_36_121
*999 FILLER_36_133
*1000 FILLER_36_139
*1001 FILLER_36_141
*1002 FILLER_36_153
*1003 FILLER_36_165
*1004 FILLER_36_177
*1005 FILLER_36_189
*1006 FILLER_36_195
*1007 FILLER_36_197
*1008 FILLER_36_20
*1009 FILLER_36_209
*1010 FILLER_36_221
*1011 FILLER_36_233
*1012 FILLER_36_245
*1013 FILLER_36_251
*1014 FILLER_36_253
*1015 FILLER_36_265
*1016 FILLER_36_277
*1017 FILLER_36_289
*1018 FILLER_36_29
*1019 FILLER_36_297
*1020 FILLER_36_3
*1021 FILLER_36_33
*1022 FILLER_36_42
*1023 FILLER_36_54
*1024 FILLER_36_66
*1025 FILLER_36_78
*1026 FILLER_36_8
*1027 FILLER_36_85
*1028 FILLER_36_97
*1029 FILLER_37_102
*1030 FILLER_37_110
*1031 FILLER_37_113
*1032 FILLER_37_12
*1033 FILLER_37_125
*1034 FILLER_37_137
*1035 FILLER_37_149
*1036 FILLER_37_161
*1037 FILLER_37_167
*1038 FILLER_37_169
*1039 FILLER_37_181
*1040 FILLER_37_193
*1041 FILLER_37_205
*1042 FILLER_37_217
*1043 FILLER_37_223
*1044 FILLER_37_225
*1045 FILLER_37_237
*1046 FILLER_37_24
*1047 FILLER_37_249
*1048 FILLER_37_261
*1049 FILLER_37_273
*1050 FILLER_37_279
*1051 FILLER_37_281
*1052 FILLER_37_293
*1053 FILLER_37_3
*1054 FILLER_37_36
*1055 FILLER_37_48
*1056 FILLER_37_57
*1057 FILLER_37_63
*1058 FILLER_37_78
*1059 FILLER_37_90
*1060 FILLER_38_109
*1061 FILLER_38_121
*1062 FILLER_38_133
*1063 FILLER_38_139
*1064 FILLER_38_141
*1065 FILLER_38_153
*1066 FILLER_38_165
*1067 FILLER_38_177
*1068 FILLER_38_189
*1069 FILLER_38_195
*1070 FILLER_38_197
*1071 FILLER_38_209
*1072 FILLER_38_221
*1073 FILLER_38_23
*1074 FILLER_38_233
*1075 FILLER_38_245
*1076 FILLER_38_251
*1077 FILLER_38_253
*1078 FILLER_38_265
*1079 FILLER_38_27
*1080 FILLER_38_277
*1081 FILLER_38_289
*1082 FILLER_38_29
*1083 FILLER_38_297
*1084 FILLER_38_3
*1085 FILLER_38_41
*1086 FILLER_38_49
*1087 FILLER_38_58
*1088 FILLER_38_66
*1089 FILLER_38_78
*1090 FILLER_38_85
*1091 FILLER_38_97
*1092 FILLER_39_105
*1093 FILLER_39_111
*1094 FILLER_39_113
*1095 FILLER_39_125
*1096 FILLER_39_137
*1097 FILLER_39_149
*1098 FILLER_39_15
*1099 FILLER_39_161
*1100 FILLER_39_167
*1101 FILLER_39_169
*1102 FILLER_39_181
*1103 FILLER_39_193
*1104 FILLER_39_205
*1105 FILLER_39_217
*1106 FILLER_39_223
*1107 FILLER_39_225
*1108 FILLER_39_237
*1109 FILLER_39_249
*1110 FILLER_39_261
*1111 FILLER_39_27
*1112 FILLER_39_273
*1113 FILLER_39_279
*1114 FILLER_39_281
*1115 FILLER_39_293
*1116 FILLER_39_3
*1117 FILLER_39_39
*1118 FILLER_39_51
*1119 FILLER_39_55
*1120 FILLER_39_57
*1121 FILLER_39_61
*1122 FILLER_39_69
*1123 FILLER_39_81
*1124 FILLER_39_93
*1125 FILLER_3_105
*1126 FILLER_3_111
*1127 FILLER_3_113
*1128 FILLER_3_125
*1129 FILLER_3_137
*1130 FILLER_3_149
*1131 FILLER_3_15
*1132 FILLER_3_161
*1133 FILLER_3_167
*1134 FILLER_3_169
*1135 FILLER_3_181
*1136 FILLER_3_193
*1137 FILLER_3_205
*1138 FILLER_3_217
*1139 FILLER_3_223
*1140 FILLER_3_225
*1141 FILLER_3_237
*1142 FILLER_3_249
*1143 FILLER_3_261
*1144 FILLER_3_273
*1145 FILLER_3_279
*1146 FILLER_3_281
*1147 FILLER_3_293
*1148 FILLER_3_3
*1149 FILLER_3_39
*1150 FILLER_3_51
*1151 FILLER_3_55
*1152 FILLER_3_57
*1153 FILLER_3_69
*1154 FILLER_3_81
*1155 FILLER_3_93
*1156 FILLER_40_109
*1157 FILLER_40_121
*1158 FILLER_40_133
*1159 FILLER_40_139
*1160 FILLER_40_141
*1161 FILLER_40_15
*1162 FILLER_40_153
*1163 FILLER_40_165
*1164 FILLER_40_177
*1165 FILLER_40_189
*1166 FILLER_40_195
*1167 FILLER_40_197
*1168 FILLER_40_209
*1169 FILLER_40_221
*1170 FILLER_40_233
*1171 FILLER_40_245
*1172 FILLER_40_251
*1173 FILLER_40_253
*1174 FILLER_40_265
*1175 FILLER_40_27
*1176 FILLER_40_277
*1177 FILLER_40_289
*1178 FILLER_40_29
*1179 FILLER_40_297
*1180 FILLER_40_3
*1181 FILLER_40_41
*1182 FILLER_40_53
*1183 FILLER_40_65
*1184 FILLER_40_77
*1185 FILLER_40_83
*1186 FILLER_40_85
*1187 FILLER_40_97
*1188 FILLER_41_105
*1189 FILLER_41_111
*1190 FILLER_41_113
*1191 FILLER_41_125
*1192 FILLER_41_137
*1193 FILLER_41_149
*1194 FILLER_41_15
*1195 FILLER_41_161
*1196 FILLER_41_167
*1197 FILLER_41_169
*1198 FILLER_41_181
*1199 FILLER_41_193
*1200 FILLER_41_205
*1201 FILLER_41_217
*1202 FILLER_41_223
*1203 FILLER_41_225
*1204 FILLER_41_237
*1205 FILLER_41_249
*1206 FILLER_41_261
*1207 FILLER_41_27
*1208 FILLER_41_273
*1209 FILLER_41_279
*1210 FILLER_41_281
*1211 FILLER_41_293
*1212 FILLER_41_3
*1213 FILLER_41_39
*1214 FILLER_41_51
*1215 FILLER_41_55
*1216 FILLER_41_57
*1217 FILLER_41_69
*1218 FILLER_41_81
*1219 FILLER_41_93
*1220 FILLER_42_109
*1221 FILLER_42_121
*1222 FILLER_42_133
*1223 FILLER_42_139
*1224 FILLER_42_141
*1225 FILLER_42_15
*1226 FILLER_42_153
*1227 FILLER_42_165
*1228 FILLER_42_177
*1229 FILLER_42_189
*1230 FILLER_42_195
*1231 FILLER_42_197
*1232 FILLER_42_209
*1233 FILLER_42_221
*1234 FILLER_42_233
*1235 FILLER_42_245
*1236 FILLER_42_251
*1237 FILLER_42_253
*1238 FILLER_42_265
*1239 FILLER_42_27
*1240 FILLER_42_277
*1241 FILLER_42_289
*1242 FILLER_42_29
*1243 FILLER_42_297
*1244 FILLER_42_3
*1245 FILLER_42_41
*1246 FILLER_42_49
*1247 FILLER_42_56
*1248 FILLER_42_68
*1249 FILLER_42_80
*1250 FILLER_42_85
*1251 FILLER_42_97
*1252 FILLER_43_10
*1253 FILLER_43_105
*1254 FILLER_43_111
*1255 FILLER_43_113
*1256 FILLER_43_125
*1257 FILLER_43_137
*1258 FILLER_43_149
*1259 FILLER_43_161
*1260 FILLER_43_167
*1261 FILLER_43_169
*1262 FILLER_43_18
*1263 FILLER_43_181
*1264 FILLER_43_193
*1265 FILLER_43_205
*1266 FILLER_43_217
*1267 FILLER_43_223
*1268 FILLER_43_225
*1269 FILLER_43_237
*1270 FILLER_43_249
*1271 FILLER_43_26
*1272 FILLER_43_261
*1273 FILLER_43_273
*1274 FILLER_43_279
*1275 FILLER_43_281
*1276 FILLER_43_293
*1277 FILLER_43_3
*1278 FILLER_43_35
*1279 FILLER_43_47
*1280 FILLER_43_55
*1281 FILLER_43_57
*1282 FILLER_43_69
*1283 FILLER_43_81
*1284 FILLER_43_93
*1285 FILLER_44_109
*1286 FILLER_44_121
*1287 FILLER_44_133
*1288 FILLER_44_139
*1289 FILLER_44_141
*1290 FILLER_44_15
*1291 FILLER_44_153
*1292 FILLER_44_165
*1293 FILLER_44_177
*1294 FILLER_44_189
*1295 FILLER_44_195
*1296 FILLER_44_197
*1297 FILLER_44_209
*1298 FILLER_44_221
*1299 FILLER_44_233
*1300 FILLER_44_245
*1301 FILLER_44_251
*1302 FILLER_44_253
*1303 FILLER_44_265
*1304 FILLER_44_27
*1305 FILLER_44_277
*1306 FILLER_44_289
*1307 FILLER_44_29
*1308 FILLER_44_297
*1309 FILLER_44_3
*1310 FILLER_44_45
*1311 FILLER_44_57
*1312 FILLER_44_69
*1313 FILLER_44_81
*1314 FILLER_44_85
*1315 FILLER_44_97
*1316 FILLER_45_104
*1317 FILLER_45_113
*1318 FILLER_45_125
*1319 FILLER_45_137
*1320 FILLER_45_149
*1321 FILLER_45_15
*1322 FILLER_45_161
*1323 FILLER_45_167
*1324 FILLER_45_169
*1325 FILLER_45_181
*1326 FILLER_45_193
*1327 FILLER_45_205
*1328 FILLER_45_217
*1329 FILLER_45_223
*1330 FILLER_45_225
*1331 FILLER_45_237
*1332 FILLER_45_249
*1333 FILLER_45_261
*1334 FILLER_45_27
*1335 FILLER_45_273
*1336 FILLER_45_279
*1337 FILLER_45_281
*1338 FILLER_45_293
*1339 FILLER_45_3
*1340 FILLER_45_39
*1341 FILLER_45_51
*1342 FILLER_45_55
*1343 FILLER_45_57
*1344 FILLER_45_69
*1345 FILLER_45_81
*1346 FILLER_45_93
*1347 FILLER_46_109
*1348 FILLER_46_11
*1349 FILLER_46_121
*1350 FILLER_46_133
*1351 FILLER_46_139
*1352 FILLER_46_141
*1353 FILLER_46_153
*1354 FILLER_46_165
*1355 FILLER_46_177
*1356 FILLER_46_189
*1357 FILLER_46_195
*1358 FILLER_46_197
*1359 FILLER_46_20
*1360 FILLER_46_209
*1361 FILLER_46_221
*1362 FILLER_46_233
*1363 FILLER_46_245
*1364 FILLER_46_251
*1365 FILLER_46_253
*1366 FILLER_46_265
*1367 FILLER_46_277
*1368 FILLER_46_289
*1369 FILLER_46_29
*1370 FILLER_46_297
*1371 FILLER_46_3
*1372 FILLER_46_41
*1373 FILLER_46_53
*1374 FILLER_46_65
*1375 FILLER_46_77
*1376 FILLER_46_83
*1377 FILLER_46_85
*1378 FILLER_46_97
*1379 FILLER_47_107
*1380 FILLER_47_111
*1381 FILLER_47_113
*1382 FILLER_47_125
*1383 FILLER_47_137
*1384 FILLER_47_149
*1385 FILLER_47_15
*1386 FILLER_47_161
*1387 FILLER_47_167
*1388 FILLER_47_169
*1389 FILLER_47_181
*1390 FILLER_47_193
*1391 FILLER_47_205
*1392 FILLER_47_217
*1393 FILLER_47_223
*1394 FILLER_47_225
*1395 FILLER_47_237
*1396 FILLER_47_249
*1397 FILLER_47_261
*1398 FILLER_47_27
*1399 FILLER_47_273
*1400 FILLER_47_279
*1401 FILLER_47_281
*1402 FILLER_47_293
*1403 FILLER_47_3
*1404 FILLER_47_39
*1405 FILLER_47_51
*1406 FILLER_47_55
*1407 FILLER_47_57
*1408 FILLER_47_69
*1409 FILLER_47_75
*1410 FILLER_47_83
*1411 FILLER_47_95
*1412 FILLER_48_109
*1413 FILLER_48_121
*1414 FILLER_48_133
*1415 FILLER_48_139
*1416 FILLER_48_141
*1417 FILLER_48_15
*1418 FILLER_48_153
*1419 FILLER_48_165
*1420 FILLER_48_177
*1421 FILLER_48_189
*1422 FILLER_48_195
*1423 FILLER_48_197
*1424 FILLER_48_209
*1425 FILLER_48_221
*1426 FILLER_48_233
*1427 FILLER_48_245
*1428 FILLER_48_251
*1429 FILLER_48_253
*1430 FILLER_48_265
*1431 FILLER_48_27
*1432 FILLER_48_277
*1433 FILLER_48_289
*1434 FILLER_48_29
*1435 FILLER_48_297
*1436 FILLER_48_3
*1437 FILLER_48_41
*1438 FILLER_48_53
*1439 FILLER_48_65
*1440 FILLER_48_77
*1441 FILLER_48_83
*1442 FILLER_48_85
*1443 FILLER_48_97
*1444 FILLER_49_105
*1445 FILLER_49_111
*1446 FILLER_49_113
*1447 FILLER_49_125
*1448 FILLER_49_137
*1449 FILLER_49_149
*1450 FILLER_49_15
*1451 FILLER_49_161
*1452 FILLER_49_167
*1453 FILLER_49_169
*1454 FILLER_49_181
*1455 FILLER_49_193
*1456 FILLER_49_205
*1457 FILLER_49_217
*1458 FILLER_49_223
*1459 FILLER_49_225
*1460 FILLER_49_237
*1461 FILLER_49_249
*1462 FILLER_49_261
*1463 FILLER_49_27
*1464 FILLER_49_273
*1465 FILLER_49_279
*1466 FILLER_49_281
*1467 FILLER_49_293
*1468 FILLER_49_3
*1469 FILLER_49_39
*1470 FILLER_49_51
*1471 FILLER_49_55
*1472 FILLER_49_57
*1473 FILLER_49_69
*1474 FILLER_49_81
*1475 FILLER_49_93
*1476 FILLER_4_109
*1477 FILLER_4_121
*1478 FILLER_4_133
*1479 FILLER_4_139
*1480 FILLER_4_141
*1481 FILLER_4_153
*1482 FILLER_4_165
*1483 FILLER_4_177
*1484 FILLER_4_189
*1485 FILLER_4_195
*1486 FILLER_4_197
*1487 FILLER_4_209
*1488 FILLER_4_22
*1489 FILLER_4_221
*1490 FILLER_4_233
*1491 FILLER_4_245
*1492 FILLER_4_251
*1493 FILLER_4_253
*1494 FILLER_4_265
*1495 FILLER_4_277
*1496 FILLER_4_289
*1497 FILLER_4_29
*1498 FILLER_4_297
*1499 FILLER_4_3
*1500 FILLER_4_47
*1501 FILLER_4_59
*1502 FILLER_4_71
*1503 FILLER_4_83
*1504 FILLER_4_85
*1505 FILLER_4_97
*1506 FILLER_50_109
*1507 FILLER_50_121
*1508 FILLER_50_133
*1509 FILLER_50_139
*1510 FILLER_50_141
*1511 FILLER_50_15
*1512 FILLER_50_153
*1513 FILLER_50_165
*1514 FILLER_50_177
*1515 FILLER_50_189
*1516 FILLER_50_195
*1517 FILLER_50_197
*1518 FILLER_50_209
*1519 FILLER_50_221
*1520 FILLER_50_233
*1521 FILLER_50_245
*1522 FILLER_50_251
*1523 FILLER_50_253
*1524 FILLER_50_265
*1525 FILLER_50_27
*1526 FILLER_50_277
*1527 FILLER_50_289
*1528 FILLER_50_29
*1529 FILLER_50_297
*1530 FILLER_50_3
*1531 FILLER_50_41
*1532 FILLER_50_53
*1533 FILLER_50_65
*1534 FILLER_50_77
*1535 FILLER_50_83
*1536 FILLER_50_85
*1537 FILLER_50_97
*1538 FILLER_51_105
*1539 FILLER_51_111
*1540 FILLER_51_113
*1541 FILLER_51_125
*1542 FILLER_51_137
*1543 FILLER_51_149
*1544 FILLER_51_15
*1545 FILLER_51_161
*1546 FILLER_51_167
*1547 FILLER_51_169
*1548 FILLER_51_181
*1549 FILLER_51_193
*1550 FILLER_51_205
*1551 FILLER_51_217
*1552 FILLER_51_223
*1553 FILLER_51_225
*1554 FILLER_51_237
*1555 FILLER_51_249
*1556 FILLER_51_261
*1557 FILLER_51_27
*1558 FILLER_51_273
*1559 FILLER_51_279
*1560 FILLER_51_281
*1561 FILLER_51_293
*1562 FILLER_51_3
*1563 FILLER_51_39
*1564 FILLER_51_51
*1565 FILLER_51_55
*1566 FILLER_51_57
*1567 FILLER_51_69
*1568 FILLER_51_81
*1569 FILLER_51_93
*1570 FILLER_52_109
*1571 FILLER_52_121
*1572 FILLER_52_133
*1573 FILLER_52_139
*1574 FILLER_52_141
*1575 FILLER_52_15
*1576 FILLER_52_153
*1577 FILLER_52_165
*1578 FILLER_52_177
*1579 FILLER_52_189
*1580 FILLER_52_195
*1581 FILLER_52_197
*1582 FILLER_52_209
*1583 FILLER_52_221
*1584 FILLER_52_233
*1585 FILLER_52_245
*1586 FILLER_52_251
*1587 FILLER_52_253
*1588 FILLER_52_265
*1589 FILLER_52_27
*1590 FILLER_52_277
*1591 FILLER_52_289
*1592 FILLER_52_29
*1593 FILLER_52_297
*1594 FILLER_52_3
*1595 FILLER_52_41
*1596 FILLER_52_53
*1597 FILLER_52_65
*1598 FILLER_52_77
*1599 FILLER_52_83
*1600 FILLER_52_85