*SPEF "ieee 1481-1999"
*DESIGN "weverest_top"
*DATE "11:11:11 Fri 11 11, 1111"
*VENDOR "OpenRCX"
*PROGRAM "Parallel Extraction"
*VERSION "1.0"
*DESIGN_FLOW "NAME_SCOPE LOCAL" "PIN_CAP NONE"
*DIVIDER /
*DELIMITER :
*BUS_DELIMITER []
*T_UNIT 1 NS
*C_UNIT 1 PF
*R_UNIT 1 OHM
*L_UNIT 1 HENRY

*NAME_MAP
*1 io_in[0]
*2 io_in[1]
*3 io_in[2]
*4 io_in[3]
*5 io_in[4]
*6 io_in[5]
*7 io_in[6]
*8 io_in[7]
*9 io_out[0]
*10 io_out[1]
*11 io_out[2]
*12 io_out[3]
*13 io_out[4]
*14 io_out[5]
*15 io_out[6]
*16 net8
*19 _000_
*20 _001_
*21 _002_
*22 _003_
*23 _004_
*24 _005_
*25 _006_
*26 _007_
*27 _008_
*28 _009_
*29 _010_
*30 _011_
*31 _012_
*32 _013_
*33 _014_
*34 _015_
*35 _016_
*36 _017_
*37 _018_
*38 _019_
*39 _020_
*40 _021_
*41 _022_
*42 _023_
*43 _024_
*44 _025_
*45 _026_
*46 _027_
*47 _028_
*48 _029_
*49 _030_
*50 _031_
*51 _032_
*52 _033_
*53 _034_
*54 _035_
*55 _036_
*56 _037_
*57 _038_
*58 _039_
*59 _040_
*60 _041_
*61 _042_
*62 _043_
*63 _044_
*64 _045_
*65 _046_
*66 _047_
*67 _048_
*68 _049_
*69 _050_
*70 _051_
*71 _052_
*72 _053_
*73 _054_
*74 _055_
*75 _056_
*76 _057_
*77 _058_
*78 _059_
*79 _060_
*80 _061_
*81 clknet_0_io_in[0]
*82 clknet_2_0__leaf_io_in[0]
*83 clknet_2_1__leaf_io_in[0]
*84 clknet_2_2__leaf_io_in[0]
*85 clknet_2_3__leaf_io_in[0]
*86 net1
*87 net10
*88 net11
*89 net12
*90 net13
*91 net14
*92 net15
*93 net16
*94 net2
*95 net3
*96 net4
*97 net5
*98 net6
*99 net7
*100 net9
*101 sqrt_inst\.d\[1\]\[2\]
*102 sqrt_inst\.d\[1\]\[3\]
*103 sqrt_inst\.d\[1\]\[4\]
*104 sqrt_inst\.d\[1\]\[5\]
*105 sqrt_inst\.d\[1\]\[6\]
*106 sqrt_inst\.d\[1\]\[7\]
*107 sqrt_inst\.d\[2\]\[4\]
*108 sqrt_inst\.d\[2\]\[5\]
*109 sqrt_inst\.d\[2\]\[6\]
*110 sqrt_inst\.d\[2\]\[7\]
*111 sqrt_inst\.d\[3\]\[6\]
*112 sqrt_inst\.d\[3\]\[7\]
*113 sqrt_inst\.q\[1\]\[0\]
*114 sqrt_inst\.q\[2\]\[0\]
*115 sqrt_inst\.q\[2\]\[1\]
*116 sqrt_inst\.q\[3\]\[0\]
*117 sqrt_inst\.q\[3\]\[1\]
*118 sqrt_inst\.q\[3\]\[2\]
*119 sqrt_inst\.q\[4\]\[0\]
*120 sqrt_inst\.q\[4\]\[1\]
*121 sqrt_inst\.q\[4\]\[2\]
*122 sqrt_inst\.q\[4\]\[3\]
*123 sqrt_inst\.r\[1\]\[0\]
*124 sqrt_inst\.r\[2\]\[0\]
*125 sqrt_inst\.r\[2\]\[1\]
*126 sqrt_inst\.r\[2\]\[2\]
*127 sqrt_inst\.r\[2\]\[3\]
*128 sqrt_inst\.r\[3\]\[0\]
*129 sqrt_inst\.r\[3\]\[1\]
*130 sqrt_inst\.r\[3\]\[2\]
*131 sqrt_inst\.r\[3\]\[3\]
*132 sqrt_inst\.r\[3\]\[5\]
*133 FILLER_0_103
*134 FILLER_0_110
*135 FILLER_0_113
*136 FILLER_0_131
*137 FILLER_0_139
*138 FILLER_0_141
*139 FILLER_0_153
*140 FILLER_0_165
*141 FILLER_0_169
*142 FILLER_0_181
*143 FILLER_0_193
*144 FILLER_0_197
*145 FILLER_0_209
*146 FILLER_0_221
*147 FILLER_0_225
*148 FILLER_0_237
*149 FILLER_0_249
*150 FILLER_0_253
*151 FILLER_0_26
*152 FILLER_0_265
*153 FILLER_0_277
*154 FILLER_0_281
*155 FILLER_0_29
*156 FILLER_0_293
*157 FILLER_0_3
*158 FILLER_0_37
*159 FILLER_0_54
*160 FILLER_0_57
*161 FILLER_0_75
*162 FILLER_0_82
*163 FILLER_0_85
*164 FILLER_0_9
*165 FILLER_10_101
*166 FILLER_10_108
*167 FILLER_10_119
*168 FILLER_10_126
*169 FILLER_10_138
*170 FILLER_10_141
*171 FILLER_10_153
*172 FILLER_10_165
*173 FILLER_10_177
*174 FILLER_10_189
*175 FILLER_10_195
*176 FILLER_10_197
*177 FILLER_10_209
*178 FILLER_10_221
*179 FILLER_10_233
*180 FILLER_10_245
*181 FILLER_10_251
*182 FILLER_10_253
*183 FILLER_10_257
*184 FILLER_10_26
*185 FILLER_10_264
*186 FILLER_10_276
*187 FILLER_10_288
*188 FILLER_10_29
*189 FILLER_10_296
*190 FILLER_10_3
*191 FILLER_10_41
*192 FILLER_10_60
*193 FILLER_10_80
*194 FILLER_10_85
*195 FILLER_10_97
*196 FILLER_11_105
*197 FILLER_11_111
*198 FILLER_11_113
*199 FILLER_11_121
*200 FILLER_11_127
*201 FILLER_11_145
*202 FILLER_11_155
*203 FILLER_11_167
*204 FILLER_11_169
*205 FILLER_11_190
*206 FILLER_11_202
*207 FILLER_11_214
*208 FILLER_11_222
*209 FILLER_11_225
*210 FILLER_11_237
*211 FILLER_11_249
*212 FILLER_11_261
*213 FILLER_11_273
*214 FILLER_11_279
*215 FILLER_11_281
*216 FILLER_11_29
*217 FILLER_11_293
*218 FILLER_11_3
*219 FILLER_11_37
*220 FILLER_11_54
*221 FILLER_11_57
*222 FILLER_11_69
*223 FILLER_11_8
*224 FILLER_11_81
*225 FILLER_11_93
*226 FILLER_12_108
*227 FILLER_12_120
*228 FILLER_12_124
*229 FILLER_12_133
*230 FILLER_12_139
*231 FILLER_12_141
*232 FILLER_12_153
*233 FILLER_12_165
*234 FILLER_12_177
*235 FILLER_12_189
*236 FILLER_12_195
*237 FILLER_12_197
*238 FILLER_12_209
*239 FILLER_12_221
*240 FILLER_12_233
*241 FILLER_12_245
*242 FILLER_12_251
*243 FILLER_12_253
*244 FILLER_12_26
*245 FILLER_12_265
*246 FILLER_12_277
*247 FILLER_12_285
*248 FILLER_12_29
*249 FILLER_12_290
*250 FILLER_12_298
*251 FILLER_12_3
*252 FILLER_12_41
*253 FILLER_12_60
*254 FILLER_12_72
*255 FILLER_12_85
*256 FILLER_12_9
*257 FILLER_12_96
*258 FILLER_13_109
*259 FILLER_13_11
*260 FILLER_13_113
*261 FILLER_13_125
*262 FILLER_13_137
*263 FILLER_13_145
*264 FILLER_13_149
*265 FILLER_13_161
*266 FILLER_13_167
*267 FILLER_13_169
*268 FILLER_13_181
*269 FILLER_13_193
*270 FILLER_13_205
*271 FILLER_13_217
*272 FILLER_13_223
*273 FILLER_13_225
*274 FILLER_13_237
*275 FILLER_13_249
*276 FILLER_13_261
*277 FILLER_13_273
*278 FILLER_13_279
*279 FILLER_13_28
*280 FILLER_13_281
*281 FILLER_13_293
*282 FILLER_13_3
*283 FILLER_13_40
*284 FILLER_13_52
*285 FILLER_13_57
*286 FILLER_13_69
*287 FILLER_13_77
*288 FILLER_13_85
*289 FILLER_13_97
*290 FILLER_14_103
*291 FILLER_14_112
*292 FILLER_14_124
*293 FILLER_14_136
*294 FILLER_14_141
*295 FILLER_14_153
*296 FILLER_14_165
*297 FILLER_14_177
*298 FILLER_14_189
*299 FILLER_14_195
*300 FILLER_14_197
*301 FILLER_14_209
*302 FILLER_14_221
*303 FILLER_14_233
*304 FILLER_14_245
*305 FILLER_14_251
*306 FILLER_14_253
*307 FILLER_14_26
*308 FILLER_14_265
*309 FILLER_14_277
*310 FILLER_14_289
*311 FILLER_14_29
*312 FILLER_14_297
*313 FILLER_14_3
*314 FILLER_14_41
*315 FILLER_14_53
*316 FILLER_14_65
*317 FILLER_14_77
*318 FILLER_14_83
*319 FILLER_14_85
*320 FILLER_14_9
*321 FILLER_14_97
*322 FILLER_15_108
*323 FILLER_15_113
*324 FILLER_15_125
*325 FILLER_15_137
*326 FILLER_15_149
*327 FILLER_15_15
*328 FILLER_15_157
*329 FILLER_15_164
*330 FILLER_15_169
*331 FILLER_15_190
*332 FILLER_15_202
*333 FILLER_15_214
*334 FILLER_15_222
*335 FILLER_15_225
*336 FILLER_15_237
*337 FILLER_15_249
*338 FILLER_15_261
*339 FILLER_15_27
*340 FILLER_15_273
*341 FILLER_15_279
*342 FILLER_15_281
*343 FILLER_15_293
*344 FILLER_15_3
*345 FILLER_15_39
*346 FILLER_15_51
*347 FILLER_15_55
*348 FILLER_15_57
*349 FILLER_15_69
*350 FILLER_15_84
*351 FILLER_15_96
*352 FILLER_16_109
*353 FILLER_16_121
*354 FILLER_16_133
*355 FILLER_16_139
*356 FILLER_16_141
*357 FILLER_16_153
*358 FILLER_16_163
*359 FILLER_16_175
*360 FILLER_16_187
*361 FILLER_16_195
*362 FILLER_16_197
*363 FILLER_16_20
*364 FILLER_16_209
*365 FILLER_16_221
*366 FILLER_16_233
*367 FILLER_16_245
*368 FILLER_16_251
*369 FILLER_16_253
*370 FILLER_16_265
*371 FILLER_16_277
*372 FILLER_16_289
*373 FILLER_16_29
*374 FILLER_16_297
*375 FILLER_16_3
*376 FILLER_16_41
*377 FILLER_16_48
*378 FILLER_16_60
*379 FILLER_16_72
*380 FILLER_16_8
*381 FILLER_16_85
*382 FILLER_16_97
*383 FILLER_17_103
*384 FILLER_17_109
*385 FILLER_17_113
*386 FILLER_17_125
*387 FILLER_17_137
*388 FILLER_17_149
*389 FILLER_17_15
*390 FILLER_17_153
*391 FILLER_17_157
*392 FILLER_17_165
*393 FILLER_17_169
*394 FILLER_17_181
*395 FILLER_17_193
*396 FILLER_17_205
*397 FILLER_17_217
*398 FILLER_17_223
*399 FILLER_17_225
*400 FILLER_17_237
*401 FILLER_17_249
*402 FILLER_17_261
*403 FILLER_17_27
*404 FILLER_17_273
*405 FILLER_17_279
*406 FILLER_17_281
*407 FILLER_17_293
*408 FILLER_17_3
*409 FILLER_17_39
*410 FILLER_17_51
*411 FILLER_17_55
*412 FILLER_17_57
*413 FILLER_17_71
*414 FILLER_17_83
*415 FILLER_17_95
*416 FILLER_18_109
*417 FILLER_18_11
*418 FILLER_18_121
*419 FILLER_18_133
*420 FILLER_18_139
*421 FILLER_18_141
*422 FILLER_18_15
*423 FILLER_18_153
*424 FILLER_18_159
*425 FILLER_18_166
*426 FILLER_18_177
*427 FILLER_18_189
*428 FILLER_18_195
*429 FILLER_18_197
*430 FILLER_18_209
*431 FILLER_18_217
*432 FILLER_18_221
*433 FILLER_18_233
*434 FILLER_18_245
*435 FILLER_18_251
*436 FILLER_18_253
*437 FILLER_18_265
*438 FILLER_18_27
*439 FILLER_18_277
*440 FILLER_18_289
*441 FILLER_18_29
*442 FILLER_18_297
*443 FILLER_18_3
*444 FILLER_18_41
*445 FILLER_18_53
*446 FILLER_18_65
*447 FILLER_18_77
*448 FILLER_18_83
*449 FILLER_18_85
*450 FILLER_18_97
*451 FILLER_19_108
*452 FILLER_19_113
*453 FILLER_19_125
*454 FILLER_19_137
*455 FILLER_19_149
*456 FILLER_19_15
*457 FILLER_19_161
*458 FILLER_19_167
*459 FILLER_19_169
*460 FILLER_19_181
*461 FILLER_19_193
*462 FILLER_19_205
*463 FILLER_19_217
*464 FILLER_19_223
*465 FILLER_19_225
*466 FILLER_19_237
*467 FILLER_19_249
*468 FILLER_19_261
*469 FILLER_19_27
*470 FILLER_19_273
*471 FILLER_19_279
*472 FILLER_19_281
*473 FILLER_19_293
*474 FILLER_19_3
*475 FILLER_19_39
*476 FILLER_19_51
*477 FILLER_19_55
*478 FILLER_19_57
*479 FILLER_19_69
*480 FILLER_19_81
*481 FILLER_19_89
*482 FILLER_19_96
*483 FILLER_1_101
*484 FILLER_1_110
*485 FILLER_1_113
*486 FILLER_1_131
*487 FILLER_1_143
*488 FILLER_1_151
*489 FILLER_1_156
*490 FILLER_1_169
*491 FILLER_1_181
*492 FILLER_1_193
*493 FILLER_1_205
*494 FILLER_1_217
*495 FILLER_1_223
*496 FILLER_1_225
*497 FILLER_1_237
*498 FILLER_1_249
*499 FILLER_1_26
*500 FILLER_1_261
*501 FILLER_1_273
*502 FILLER_1_279
*503 FILLER_1_281
*504 FILLER_1_293
*505 FILLER_1_3
*506 FILLER_1_54
*507 FILLER_1_57
*508 FILLER_1_81
*509 FILLER_20_109
*510 FILLER_20_121
*511 FILLER_20_133
*512 FILLER_20_139
*513 FILLER_20_141
*514 FILLER_20_153
*515 FILLER_20_165
*516 FILLER_20_177
*517 FILLER_20_189
*518 FILLER_20_195
*519 FILLER_20_197
*520 FILLER_20_20
*521 FILLER_20_209
*522 FILLER_20_221
*523 FILLER_20_233
*524 FILLER_20_245
*525 FILLER_20_251
*526 FILLER_20_253
*527 FILLER_20_265
*528 FILLER_20_277
*529 FILLER_20_289
*530 FILLER_20_29
*531 FILLER_20_297
*532 FILLER_20_3
*533 FILLER_20_41
*534 FILLER_20_53
*535 FILLER_20_65
*536 FILLER_20_77
*537 FILLER_20_8
*538 FILLER_20_83
*539 FILLER_20_85
*540 FILLER_20_97
*541 FILLER_21_105
*542 FILLER_21_111
*543 FILLER_21_113
*544 FILLER_21_119
*545 FILLER_21_127
*546 FILLER_21_139
*547 FILLER_21_15
*548 FILLER_21_151
*549 FILLER_21_163
*550 FILLER_21_167
*551 FILLER_21_169
*552 FILLER_21_181
*553 FILLER_21_193
*554 FILLER_21_205
*555 FILLER_21_217
*556 FILLER_21_223
*557 FILLER_21_225
*558 FILLER_21_237
*559 FILLER_21_249
*560 FILLER_21_261
*561 FILLER_21_27
*562 FILLER_21_273
*563 FILLER_21_279
*564 FILLER_21_281
*565 FILLER_21_293
*566 FILLER_21_3
*567 FILLER_21_39
*568 FILLER_21_48
*569 FILLER_21_57
*570 FILLER_21_69
*571 FILLER_21_81
*572 FILLER_21_93
*573 FILLER_22_109
*574 FILLER_22_121
*575 FILLER_22_133
*576 FILLER_22_139
*577 FILLER_22_141
*578 FILLER_22_15
*579 FILLER_22_153
*580 FILLER_22_165
*581 FILLER_22_177
*582 FILLER_22_189
*583 FILLER_22_195
*584 FILLER_22_197
*585 FILLER_22_209
*586 FILLER_22_221
*587 FILLER_22_233
*588 FILLER_22_245
*589 FILLER_22_251
*590 FILLER_22_253
*591 FILLER_22_265
*592 FILLER_22_27
*593 FILLER_22_277
*594 FILLER_22_289
*595 FILLER_22_29
*596 FILLER_22_297
*597 FILLER_22_3
*598 FILLER_22_41
*599 FILLER_22_53
*600 FILLER_22_65
*601 FILLER_22_73
*602 FILLER_22_82
*603 FILLER_22_85
*604 FILLER_22_97
*605 FILLER_23_101
*606 FILLER_23_110
*607 FILLER_23_113
*608 FILLER_23_125
*609 FILLER_23_137
*610 FILLER_23_149
*611 FILLER_23_15
*612 FILLER_23_161
*613 FILLER_23_167
*614 FILLER_23_169
*615 FILLER_23_181
*616 FILLER_23_193
*617 FILLER_23_205
*618 FILLER_23_217
*619 FILLER_23_223
*620 FILLER_23_225
*621 FILLER_23_237
*622 FILLER_23_249
*623 FILLER_23_261
*624 FILLER_23_27
*625 FILLER_23_273
*626 FILLER_23_279
*627 FILLER_23_281
*628 FILLER_23_293
*629 FILLER_23_3
*630 FILLER_23_39
*631 FILLER_23_51
*632 FILLER_23_55
*633 FILLER_23_57
*634 FILLER_23_69
*635 FILLER_23_81
*636 FILLER_23_93
*637 FILLER_24_109
*638 FILLER_24_115
*639 FILLER_24_127
*640 FILLER_24_139
*641 FILLER_24_141
*642 FILLER_24_153
*643 FILLER_24_165
*644 FILLER_24_177
*645 FILLER_24_189
*646 FILLER_24_195
*647 FILLER_24_197
*648 FILLER_24_20
*649 FILLER_24_209
*650 FILLER_24_221
*651 FILLER_24_233
*652 FILLER_24_245
*653 FILLER_24_251
*654 FILLER_24_253
*655 FILLER_24_265
*656 FILLER_24_277
*657 FILLER_24_289
*658 FILLER_24_29
*659 FILLER_24_297
*660 FILLER_24_3
*661 FILLER_24_41
*662 FILLER_24_53
*663 FILLER_24_65
*664 FILLER_24_77
*665 FILLER_24_8
*666 FILLER_24_83
*667 FILLER_24_85
*668 FILLER_24_97
*669 FILLER_25_105
*670 FILLER_25_111
*671 FILLER_25_113
*672 FILLER_25_125
*673 FILLER_25_131
*674 FILLER_25_138
*675 FILLER_25_145
*676 FILLER_25_15
*677 FILLER_25_157
*678 FILLER_25_165
*679 FILLER_25_169
*680 FILLER_25_181
*681 FILLER_25_193
*682 FILLER_25_205
*683 FILLER_25_217
*684 FILLER_25_223
*685 FILLER_25_225
*686 FILLER_25_237
*687 FILLER_25_249
*688 FILLER_25_261
*689 FILLER_25_27
*690 FILLER_25_273
*691 FILLER_25_279
*692 FILLER_25_281
*693 FILLER_25_293
*694 FILLER_25_3
*695 FILLER_25_39
*696 FILLER_25_51
*697 FILLER_25_55
*698 FILLER_25_57
*699 FILLER_25_69
*700 FILLER_25_81
*701 FILLER_25_93
*702 FILLER_26_109
*703 FILLER_26_121
*704 FILLER_26_133
*705 FILLER_26_139
*706 FILLER_26_141
*707 FILLER_26_15
*708 FILLER_26_153
*709 FILLER_26_165
*710 FILLER_26_177
*711 FILLER_26_189
*712 FILLER_26_195
*713 FILLER_26_197
*714 FILLER_26_209
*715 FILLER_26_221
*716 FILLER_26_233
*717 FILLER_26_245
*718 FILLER_26_251
*719 FILLER_26_253
*720 FILLER_26_265
*721 FILLER_26_27
*722 FILLER_26_277
*723 FILLER_26_289
*724 FILLER_26_29
*725 FILLER_26_297
*726 FILLER_26_3
*727 FILLER_26_41
*728 FILLER_26_53
*729 FILLER_26_65
*730 FILLER_26_77
*731 FILLER_26_83
*732 FILLER_26_85
*733 FILLER_26_97
*734 FILLER_27_105
*735 FILLER_27_111
*736 FILLER_27_113
*737 FILLER_27_125
*738 FILLER_27_137
*739 FILLER_27_149
*740 FILLER_27_15
*741 FILLER_27_161
*742 FILLER_27_167
*743 FILLER_27_169
*744 FILLER_27_181
*745 FILLER_27_193
*746 FILLER_27_205
*747 FILLER_27_217
*748 FILLER_27_223
*749 FILLER_27_225
*750 FILLER_27_237
*751 FILLER_27_249
*752 FILLER_27_261
*753 FILLER_27_27
*754 FILLER_27_273
*755 FILLER_27_279
*756 FILLER_27_281
*757 FILLER_27_293
*758 FILLER_27_3
*759 FILLER_27_39
*760 FILLER_27_51
*761 FILLER_27_55
*762 FILLER_27_57
*763 FILLER_27_69
*764 FILLER_27_81
*765 FILLER_27_93
*766 FILLER_28_109
*767 FILLER_28_121
*768 FILLER_28_133
*769 FILLER_28_139
*770 FILLER_28_141
*771 FILLER_28_15
*772 FILLER_28_153
*773 FILLER_28_165
*774 FILLER_28_177
*775 FILLER_28_189
*776 FILLER_28_195
*777 FILLER_28_197
*778 FILLER_28_209
*779 FILLER_28_221
*780 FILLER_28_233
*781 FILLER_28_245
*782 FILLER_28_251
*783 FILLER_28_253
*784 FILLER_28_265
*785 FILLER_28_27
*786 FILLER_28_277
*787 FILLER_28_289
*788 FILLER_28_29
*789 FILLER_28_297
*790 FILLER_28_3
*791 FILLER_28_41
*792 FILLER_28_53
*793 FILLER_28_65
*794 FILLER_28_77
*795 FILLER_28_83
*796 FILLER_28_85
*797 FILLER_28_97
*798 FILLER_29_105
*799 FILLER_29_111
*800 FILLER_29_113
*801 FILLER_29_125
*802 FILLER_29_137
*803 FILLER_29_149
*804 FILLER_29_15
*805 FILLER_29_161
*806 FILLER_29_167
*807 FILLER_29_169
*808 FILLER_29_181
*809 FILLER_29_193
*810 FILLER_29_205
*811 FILLER_29_217
*812 FILLER_29_223
*813 FILLER_29_225
*814 FILLER_29_237
*815 FILLER_29_249
*816 FILLER_29_261
*817 FILLER_29_27
*818 FILLER_29_273
*819 FILLER_29_279
*820 FILLER_29_281
*821 FILLER_29_293
*822 FILLER_29_3
*823 FILLER_29_39
*824 FILLER_29_51
*825 FILLER_29_55
*826 FILLER_29_57
*827 FILLER_29_69
*828 FILLER_29_81
*829 FILLER_29_93
*830 FILLER_2_103
*831 FILLER_2_123
*832 FILLER_2_134
*833 FILLER_2_141
*834 FILLER_2_150
*835 FILLER_2_158
*836 FILLER_2_166
*837 FILLER_2_178
*838 FILLER_2_185
*839 FILLER_2_193
*840 FILLER_2_197
*841 FILLER_2_209
*842 FILLER_2_221
*843 FILLER_2_229
*844 FILLER_2_239
*845 FILLER_2_251
*846 FILLER_2_253
*847 FILLER_2_26
*848 FILLER_2_265
*849 FILLER_2_277
*850 FILLER_2_289
*851 FILLER_2_29
*852 FILLER_2_297
*853 FILLER_2_3
*854 FILLER_2_41
*855 FILLER_2_65
*856 FILLER_2_77
*857 FILLER_2_82
*858 FILLER_2_85
*859 FILLER_30_109
*860 FILLER_30_121
*861 FILLER_30_133
*862 FILLER_30_139
*863 FILLER_30_141
*864 FILLER_30_15
*865 FILLER_30_153
*866 FILLER_30_165
*867 FILLER_30_177
*868 FILLER_30_189
*869 FILLER_30_195
*870 FILLER_30_197
*871 FILLER_30_209
*872 FILLER_30_221
*873 FILLER_30_233
*874 FILLER_30_245
*875 FILLER_30_251
*876 FILLER_30_253
*877 FILLER_30_265
*878 FILLER_30_27
*879 FILLER_30_277
*880 FILLER_30_289
*881 FILLER_30_29
*882 FILLER_30_297
*883 FILLER_30_3
*884 FILLER_30_41
*885 FILLER_30_53
*886 FILLER_30_65
*887 FILLER_30_77
*888 FILLER_30_83
*889 FILLER_30_85
*890 FILLER_30_97
*891 FILLER_31_105
*892 FILLER_31_111
*893 FILLER_31_113
*894 FILLER_31_125
*895 FILLER_31_137
*896 FILLER_31_149
*897 FILLER_31_15
*898 FILLER_31_161
*899 FILLER_31_167
*900 FILLER_31_169
*901 FILLER_31_181
*902 FILLER_31_193
*903 FILLER_31_205
*904 FILLER_31_217
*905 FILLER_31_223
*906 FILLER_31_225
*907 FILLER_31_237
*908 FILLER_31_249
*909 FILLER_31_261
*910 FILLER_31_27
*911 FILLER_31_273
*912 FILLER_31_279
*913 FILLER_31_281
*914 FILLER_31_293
*915 FILLER_31_3
*916 FILLER_31_39
*917 FILLER_31_51
*918 FILLER_31_55
*919 FILLER_31_57
*920 FILLER_31_69
*921 FILLER_31_81
*922 FILLER_31_93
*923 FILLER_32_109
*924 FILLER_32_121
*925 FILLER_32_133
*926 FILLER_32_139
*927 FILLER_32_141
*928 FILLER_32_15
*929 FILLER_32_153
*930 FILLER_32_165
*931 FILLER_32_177
*932 FILLER_32_189
*933 FILLER_32_195
*934 FILLER_32_197
*935 FILLER_32_209
*936 FILLER_32_221
*937 FILLER_32_233
*938 FILLER_32_245
*939 FILLER_32_251
*940 FILLER_32_253
*941 FILLER_32_265
*942 FILLER_32_27
*943 FILLER_32_277
*944 FILLER_32_289
*945 FILLER_32_29
*946 FILLER_32_297
*947 FILLER_32_3
*948 FILLER_32_41
*949 FILLER_32_53
*950 FILLER_32_65
*951 FILLER_32_77
*952 FILLER_32_83
*953 FILLER_32_85
*954 FILLER_32_97
*955 FILLER_33_105
*956 FILLER_33_111
*957 FILLER_33_113
*958 FILLER_33_125
*959 FILLER_33_137
*960 FILLER_33_149
*961 FILLER_33_15
*962 FILLER_33_161
*963 FILLER_33_167
*964 FILLER_33_169
*965 FILLER_33_181
*966 FILLER_33_193
*967 FILLER_33_205
*968 FILLER_33_217
*969 FILLER_33_223
*970 FILLER_33_225
*971 FILLER_33_237
*972 FILLER_33_249
*973 FILLER_33_261
*974 FILLER_33_27
*975 FILLER_33_273
*976 FILLER_33_279
*977 FILLER_33_281
*978 FILLER_33_293
*979 FILLER_33_3
*980 FILLER_33_39
*981 FILLER_33_51
*982 FILLER_33_55
*983 FILLER_33_57
*984 FILLER_33_69
*985 FILLER_33_81
*986 FILLER_33_93
*987 FILLER_34_109
*988 FILLER_34_121
*989 FILLER_34_133
*990 FILLER_34_139
*991 FILLER_34_141
*992 FILLER_34_15
*993 FILLER_34_153
*994 FILLER_34_165
*995 FILLER_34_177
*996 FILLER_34_189
*997 FILLER_34_195
*998 FILLER_34_197
*999 FILLER_34_209
*1000 FILLER_34_221
*1001 FILLER_34_233
*1002 FILLER_34_245
*1003 FILLER_34_251
*1004 FILLER_34_253
*1005 FILLER_34_265
*1006 FILLER_34_27
*1007 FILLER_34_277
*1008 FILLER_34_289
*1009 FILLER_34_29
*1010 FILLER_34_297
*1011 FILLER_34_3
*1012 FILLER_34_41
*1013 FILLER_34_53
*1014 FILLER_34_65
*1015 FILLER_34_77
*1016 FILLER_34_83
*1017 FILLER_34_85
*1018 FILLER_34_97
*1019 FILLER_35_105
*1020 FILLER_35_111
*1021 FILLER_35_113
*1022 FILLER_35_125
*1023 FILLER_35_137
*1024 FILLER_35_149
*1025 FILLER_35_15
*1026 FILLER_35_161
*1027 FILLER_35_167
*1028 FILLER_35_169
*1029 FILLER_35_181
*1030 FILLER_35_193
*1031 FILLER_35_205
*1032 FILLER_35_217
*1033 FILLER_35_223
*1034 FILLER_35_225
*1035 FILLER_35_237
*1036 FILLER_35_249
*1037 FILLER_35_261
*1038 FILLER_35_27
*1039 FILLER_35_273
*1040 FILLER_35_279
*1041 FILLER_35_281
*1042 FILLER_35_293
*1043 FILLER_35_3
*1044 FILLER_35_39
*1045 FILLER_35_51
*1046 FILLER_35_55
*1047 FILLER_35_57
*1048 FILLER_35_69
*1049 FILLER_35_81
*1050 FILLER_35_93
*1051 FILLER_36_109
*1052 FILLER_36_121
*1053 FILLER_36_133
*1054 FILLER_36_139
*1055 FILLER_36_141
*1056 FILLER_36_15
*1057 FILLER_36_153
*1058 FILLER_36_165
*1059 FILLER_36_177
*1060 FILLER_36_189
*1061 FILLER_36_195
*1062 FILLER_36_197
*1063 FILLER_36_209
*1064 FILLER_36_221
*1065 FILLER_36_233
*1066 FILLER_36_245
*1067 FILLER_36_251
*1068 FILLER_36_253
*1069 FILLER_36_265
*1070 FILLER_36_27
*1071 FILLER_36_277
*1072 FILLER_36_289
*1073 FILLER_36_29
*1074 FILLER_36_297
*1075 FILLER_36_3
*1076 FILLER_36_41
*1077 FILLER_36_53
*1078 FILLER_36_65
*1079 FILLER_36_77
*1080 FILLER_36_83
*1081 FILLER_36_85
*1082 FILLER_36_97
*1083 FILLER_37_105
*1084 FILLER_37_111
*1085 FILLER_37_113
*1086 FILLER_37_125
*1087 FILLER_37_137
*1088 FILLER_37_149
*1089 FILLER_37_15
*1090 FILLER_37_161
*1091 FILLER_37_167
*1092 FILLER_37_169
*1093 FILLER_37_181
*1094 FILLER_37_193
*1095 FILLER_37_205
*1096 FILLER_37_217
*1097 FILLER_37_223
*1098 FILLER_37_225
*1099 FILLER_37_237
*1100 FILLER_37_249
*1101 FILLER_37_261
*1102 FILLER_37_27
*1103 FILLER_37_273
*1104 FILLER_37_279
*1105 FILLER_37_281
*1106 FILLER_37_293
*1107 FILLER_37_3
*1108 FILLER_37_39
*1109 FILLER_37_51
*1110 FILLER_37_55
*1111 FILLER_37_57
*1112 FILLER_37_69
*1113 FILLER_37_81
*1114 FILLER_37_93
*1115 FILLER_38_109
*1116 FILLER_38_121
*1117 FILLER_38_133
*1118 FILLER_38_139
*1119 FILLER_38_141
*1120 FILLER_38_15
*1121 FILLER_38_153
*1122 FILLER_38_165
*1123 FILLER_38_177
*1124 FILLER_38_189
*1125 FILLER_38_195
*1126 FILLER_38_197
*1127 FILLER_38_209
*1128 FILLER_38_221
*1129 FILLER_38_233
*1130 FILLER_38_245
*1131 FILLER_38_251
*1132 FILLER_38_253
*1133 FILLER_38_265
*1134 FILLER_38_27
*1135 FILLER_38_277
*1136 FILLER_38_289
*1137 FILLER_38_29
*1138 FILLER_38_297
*1139 FILLER_38_3
*1140 FILLER_38_41
*1141 FILLER_38_53
*1142 FILLER_38_65
*1143 FILLER_38_77
*1144 FILLER_38_83
*1145 FILLER_38_85
*1146 FILLER_38_97
*1147 FILLER_39_105
*1148 FILLER_39_111
*1149 FILLER_39_113
*1150 FILLER_39_125
*1151 FILLER_39_137
*1152 FILLER_39_149
*1153 FILLER_39_15
*1154 FILLER_39_161
*1155 FILLER_39_167
*1156 FILLER_39_169
*1157 FILLER_39_181
*1158 FILLER_39_193
*1159 FILLER_39_205
*1160 FILLER_39_217
*1161 FILLER_39_223
*1162 FILLER_39_225
*1163 FILLER_39_237
*1164 FILLER_39_249
*1165 FILLER_39_261
*1166 FILLER_39_27
*1167 FILLER_39_273
*1168 FILLER_39_279
*1169 FILLER_39_281
*1170 FILLER_39_293
*1171 FILLER_39_3
*1172 FILLER_39_39
*1173 FILLER_39_51
*1174 FILLER_39_55
*1175 FILLER_39_57
*1176 FILLER_39_69
*1177 FILLER_39_81
*1178 FILLER_39_93
*1179 FILLER_3_107
*1180 FILLER_3_111
*1181 FILLER_3_113
*1182 FILLER_3_123
*1183 FILLER_3_131
*1184 FILLER_3_138
*1185 FILLER_3_155
*1186 FILLER_3_167
*1187 FILLER_3_169
*1188 FILLER_3_181
*1189 FILLER_3_193
*1190 FILLER_3_205
*1191 FILLER_3_217
*1192 FILLER_3_223
*1193 FILLER_3_225
*1194 FILLER_3_237
*1195 FILLER_3_249
*1196 FILLER_3_261
*1197 FILLER_3_273
*1198 FILLER_3_279
*1199 FILLER_3_281
*1200 FILLER_3_293
*1201 FILLER_3_3
*1202 FILLER_3_36
*1203 FILLER_3_48
*1204 FILLER_3_57
*1205 FILLER_3_75
*1206 FILLER_3_8
*1207 FILLER_3_95
*1208 FILLER_40_109
*1209 FILLER_40_121
*1210 FILLER_40_133
*1211 FILLER_40_139
*1212 FILLER_40_141
*1213 FILLER_40_15
*1214 FILLER_40_153
*1215 FILLER_40_165
*1216 FILLER_40_177
*1217 FILLER_40_189
*1218 FILLER_40_195
*1219 FILLER_40_197
*1220 FILLER_40_209
*1221 FILLER_40_221
*1222 FILLER_40_233
*1223 FILLER_40_245
*1224 FILLER_40_251
*1225 FILLER_40_253
*1226 FILLER_40_265
*1227 FILLER_40_27
*1228 FILLER_40_277
*1229 FILLER_40_289
*1230 FILLER_40_29
*1231 FILLER_40_297
*1232 FILLER_40_3
*1233 FILLER_40_41
*1234 FILLER_40_53
*1235 FILLER_40_65
*1236 FILLER_40_77
*1237 FILLER_40_83
*1238 FILLER_40_85
*1239 FILLER_40_97
*1240 FILLER_41_105
*1241 FILLER_41_111
*1242 FILLER_41_113
*1243 FILLER_41_125
*1244 FILLER_41_137
*1245 FILLER_41_149
*1246 FILLER_41_15
*1247 FILLER_41_161
*1248 FILLER_41_167
*1249 FILLER_41_169
*1250 FILLER_41_181
*1251 FILLER_41_193
*1252 FILLER_41_205
*1253 FILLER_41_217
*1254 FILLER_41_223
*1255 FILLER_41_225
*1256 FILLER_41_237
*1257 FILLER_41_249
*1258 FILLER_41_261
*1259 FILLER_41_27
*1260 FILLER_41_273
*1261 FILLER_41_279
*1262 FILLER_41_281
*1263 FILLER_41_293
*1264 FILLER_41_3
*1265 FILLER_41_39
*1266 FILLER_41_51
*1267 FILLER_41_55
*1268 FILLER_41_57
*1269 FILLER_41_69
*1270 FILLER_41_81
*1271 FILLER_41_93
*1272 FILLER_42_109
*1273 FILLER_42_121
*1274 FILLER_42_133
*1275 FILLER_42_139
*1276 FILLER_42_141
*1277 FILLER_42_15
*1278 FILLER_42_153
*1279 FILLER_42_165
*1280 FILLER_42_177
*1281 FILLER_42_189
*1282 FILLER_42_195
*1283 FILLER_42_197
*1284 FILLER_42_209
*1285 FILLER_42_221
*1286 FILLER_42_233
*1287 FILLER_42_245
*1288 FILLER_42_251
*1289 FILLER_42_253
*1290 FILLER_42_265
*1291 FILLER_42_27
*1292 FILLER_42_277
*1293 FILLER_42_289
*1294 FILLER_42_29
*1295 FILLER_42_297
*1296 FILLER_42_3
*1297 FILLER_42_41
*1298 FILLER_42_53
*1299 FILLER_42_65
*1300 FILLER_42_77
*1301 FILLER_42_83
*1302 FILLER_42_85
*1303 FILLER_42_97
*1304 FILLER_43_105
*1305 FILLER_43_111
*1306 FILLER_43_113
*1307 FILLER_43_125
*1308 FILLER_43_137
*1309 FILLER_43_149
*1310 FILLER_43_15
*1311 FILLER_43_161
*1312 FILLER_43_167
*1313 FILLER_43_169
*1314 FILLER_43_181
*1315 FILLER_43_193
*1316 FILLER_43_205
*1317 FILLER_43_217
*1318 FILLER_43_223
*1319 FILLER_43_225
*1320 FILLER_43_237
*1321 FILLER_43_249
*1322 FILLER_43_261
*1323 FILLER_43_27
*1324 FILLER_43_273
*1325 FILLER_43_279
*1326 FILLER_43_281
*1327 FILLER_43_293
*1328 FILLER_43_3
*1329 FILLER_43_39
*1330 FILLER_43_51
*1331 FILLER_43_55
*1332 FILLER_43_57
*1333 FILLER_43_69
*1334 FILLER_43_81
*1335 FILLER_43_93
*1336 FILLER_44_109
*1337 FILLER_44_121
*1338 FILLER_44_133
*1339 FILLER_44_139
*1340 FILLER_44_141
*1341 FILLER_44_15
*1342 FILLER_44_153
*1343 FILLER_44_165
*1344 FILLER_44_177
*1345 FILLER_44_189
*1346 FILLER_44_195
*1347 FILLER_44_197
*1348 FILLER_44_209
*1349 FILLER_44_221
*1350 FILLER_44_233
*1351 FILLER_44_245
*1352 FILLER_44_251
*1353 FILLER_44_253
*1354 FILLER_44_265
*1355 FILLER_44_27
*1356 FILLER_44_277
*1357 FILLER_44_289
*1358 FILLER_44_29
*1359 FILLER_44_297
*1360 FILLER_44_3
*1361 FILLER_44_41
*1362 FILLER_44_53
*1363 FILLER_44_65
*1364 FILLER_44_77
*1365 FILLER_44_83
*1366 FILLER_44_85
*1367 FILLER_44_97
*1368 FILLER_45_105
*1369 FILLER_45_111
*1370 FILLER_45_113
*1371 FILLER_45_125
*1372 FILLER_45_137
*1373 FILLER_45_149
*1374 FILLER_45_15
*1375 FILLER_45_161
*1376 FILLER_45_167
*1377 FILLER_45_169
*1378 FILLER_45_181
*1379 FILLER_45_193
*1380 FILLER_45_205
*1381 FILLER_45_217
*1382 FILLER_45_223
*1383 FILLER_45_225
*1384 FILLER_45_237
*1385 FILLER_45_249
*1386 FILLER_45_261
*1387 FILLER_45_27
*1388 FILLER_45_273
*1389 FILLER_45_279
*1390 FILLER_45_281
*1391 FILLER_45_293
*1392 FILLER_45_3
*1393 FILLER_45_39
*1394 FILLER_45_51
*1395 FILLER_45_55
*1396 FILLER_45_57
*1397 FILLER_45_69
*1398 FILLER_45_81
*1399 FILLER_45_93
*1400 FILLER_46_109
*1401 FILLER_46_121
*1402 FILLER_46_133
*1403 FILLER_46_139
*1404 FILLER_46_141
*1405 FILLER_46_15
*1406 FILLER_46_153
*1407 FILLER_46_165
*1408 FILLER_46_177
*1409 FILLER_46_189
*1410 FILLER_46_195
*1411 FILLER_46_197
*1412 FILLER_46_209
*1413 FILLER_46_221
*1414 FILLER_46_233
*1415 FILLER_46_245
*1416 FILLER_46_251
*1417 FILLER_46_253
*1418 FILLER_46_265
*1419 FILLER_46_27
*1420 FILLER_46_277
*1421 FILLER_46_289
*1422 FILLER_46_29
*1423 FILLER_46_297
*1424 FILLER_46_3
*1425 FILLER_46_41
*1426 FILLER_46_53
*1427 FILLER_46_65
*1428 FILLER_46_77
*1429 FILLER_46_83
*1430 FILLER_46_85
*1431 FILLER_46_97
*1432 FILLER_47_105
*1433 FILLER_47_111
*1434 FILLER_47_113
*1435 FILLER_47_125
*1436 FILLER_47_137
*1437 FILLER_47_149
*1438 FILLER_47_15
*1439 FILLER_47_161
*1440 FILLER_47_167
*1441 FILLER_47_169
*1442 FILLER_47_181
*1443 FILLER_47_193
*1444 FILLER_47_205
*1445 FILLER_47_217
*1446 FILLER_47_223
*1447 FILLER_47_225
*1448 FILLER_47_237
*1449 FILLER_47_249
*1450 FILLER_47_261
*1451 FILLER_47_27
*1452 FILLER_47_273
*1453 FILLER_47_279
*1454 FILLER_47_281
*1455 FILLER_47_293
*1456 FILLER_47_3
*1457 FILLER_47_39
*1458 FILLER_47_51
*1459 FILLER_47_55
*1460 FILLER_47_57
*1461 FILLER_47_69
*1462 FILLER_47_81
*1463 FILLER_47_93
*1464 FILLER_48_109
*1465 FILLER_48_121
*1466 FILLER_48_133
*1467 FILLER_48_139
*1468 FILLER_48_141
*1469 FILLER_48_15
*1470 FILLER_48_153
*1471 FILLER_48_165
*1472 FILLER_48_177
*1473 FILLER_48_189
*1474 FILLER_48_195
*1475 FILLER_48_197
*1476 FILLER_48_209
*1477 FILLER_48_221
*1478 FILLER_48_233
*1479 FILLER_48_245
*1480 FILLER_48_251
*1481 FILLER_48_253
*1482 FILLER_48_265
*1483 FILLER_48_27
*1484 FILLER_48_277
*1485 FILLER_48_289
*1486 FILLER_48_29
*1487 FILLER_48_297
*1488 FILLER_48_3
*1489 FILLER_48_41
*1490 FILLER_48_53
*1491 FILLER_48_65
*1492 FILLER_48_77
*1493 FILLER_48_83
*1494 FILLER_48_85
*1495 FILLER_48_97
*1496 FILLER_49_105
*1497 FILLER_49_111
*1498 FILLER_49_113
*1499 FILLER_49_125
*1500 FILLER_49_137
*1501 FILLER_49_149
*1502 FILLER_49_15
*1503 FILLER_49_161
*1504 FILLER_49_167
*1505 FILLER_49_169
*1506 FILLER_49_181
*1507 FILLER_49_193
*1508 FILLER_49_205
*1509 FILLER_49_217
*1510 FILLER_49_223
*1511 FILLER_49_225
*1512 FILLER_49_237
*1513 FILLER_49_249
*1514 FILLER_49_261
*1515 FILLER_49_27
*1516 FILLER_49_273
*1517 FILLER_49_279
*1518 FILLER_49_281
*1519 FILLER_49_293
*1520 FILLER_49_3
*1521 FILLER_49_39
*1522 FILLER_49_51
*1523 FILLER_49_55
*1524 FILLER_49_57
*1525 FILLER_49_69
*1526 FILLER_49_81
*1527 FILLER_49_93
*1528 FILLER_4_103
*1529 FILLER_4_115
*1530 FILLER_4_126
*1531 FILLER_4_138
*1532 FILLER_4_141
*1533 FILLER_4_153
*1534 FILLER_4_165
*1535 FILLER_4_177
*1536 FILLER_4_189
*1537 FILLER_4_195
*1538 FILLER_4_197
*1539 FILLER_4_209
*1540 FILLER_4_221
*1541 FILLER_4_233
*1542 FILLER_4_245
*1543 FILLER_4_251
*1544 FILLER_4_253
*1545 FILLER_4_26
*1546 FILLER_4_265
*1547 FILLER_4_277
*1548 FILLER_4_289
*1549 FILLER_4_29
*1550 FILLER_4_297
*1551 FILLER_4_3
*1552 FILLER_4_41
*1553 FILLER_4_60
*1554 FILLER_4_64
*1555 FILLER_4_81
*1556 FILLER_4_85
*1557 FILLER_4_9
*1558 FILLER_50_109
*1559 FILLER_50_121
*1560 FILLER_50_133
*1561 FILLER_50_139
*1562 FILLER_50_141
*1563 FILLER_50_15
*1564 FILLER_50_153
*1565 FILLER_50_165
*1566 FILLER_50_177
*1567 FILLER_50_189
*1568 FILLER_50_195
*1569 FILLER_50_197
*1570 FILLER_50_209
*1571 FILLER_50_221
*1572 FILLER_50_233
*1573 FILLER_50_245
*1574 FILLER_50_251
*1575 FILLER_50_253
*1576 FILLER_50_265
*1577 FILLER_50_27
*1578 FILLER_50_277
*1579 FILLER_50_289
*1580 FILLER_50_29
*1581 FILLER_50_297
*1582 FILLER_50_3
*1583 FILLER_50_41
*1584 FILLER_50_53
*1585 FILLER_50_65
*1586 FILLER_50_77
*1587 FILLER_50_83
*1588 FILLER_50_85
*1589 FILLER_50_97
*1590 FILLER_51_105
*1591 FILLER_51_111
*1592 FILLER_51_113
*1593 FILLER_51_125