*SPEF "ieee 1481-1999"
*DESIGN "wokwi_tt03_simon_top"
*DATE "11:11:11 Fri 11 11, 1111"
*VENDOR "OpenRCX"
*PROGRAM "Parallel Extraction"
*VERSION "1.0"
*DESIGN_FLOW "NAME_SCOPE LOCAL" "PIN_CAP NONE"
*DIVIDER /
*DELIMITER :
*BUS_DELIMITER []
*T_UNIT 1 NS
*C_UNIT 1 PF
*R_UNIT 1 OHM
*L_UNIT 1 HENRY

*NAME_MAP
*1 io_in[0]
*2 io_in[1]
*3 io_in[2]
*4 io_in[3]
*5 io_in[4]
*6 io_in[5]
*7 io_in[6]
*8 io_in[7]
*9 io_out[0]
*10 io_out[1]
*11 io_out[2]
*12 io_out[3]
*13 io_out[4]
*14 net8
*15 net9
*16 net10
*19 _0000_
*20 _0001_
*21 _0002_
*22 _0003_
*23 _0004_
*24 _0005_
*25 _0006_
*26 _0007_
*27 _0008_
*28 _0009_
*29 _0010_
*30 _0011_
*31 _0012_
*32 _0013_
*33 _0014_
*34 _0015_
*35 _0016_
*36 _0017_
*37 _0018_
*38 _0019_
*39 _0020_
*40 _0021_
*41 _0022_
*42 _0023_
*43 _0024_
*44 _0025_
*45 _0026_
*46 _0027_
*47 _0028_
*48 _0029_
*49 _0030_
*50 _0031_
*51 _0032_
*52 _0033_
*53 _0034_
*54 _0035_
*55 _0036_
*56 _0037_
*57 _0038_
*58 _0039_
*59 _0040_
*60 _0041_
*61 _0042_
*62 _0043_
*63 _0044_
*64 _0045_
*65 _0046_
*66 _0047_
*67 _0048_
*68 _0049_
*69 _0050_
*70 _0051_
*71 _0052_
*72 _0053_
*73 _0054_
*74 _0055_
*75 _0056_
*76 _0057_
*77 _0058_
*78 _0059_
*79 _0060_
*80 _0061_
*81 _0062_
*82 _0063_
*83 _0064_
*84 _0065_
*85 _0066_
*86 _0067_
*87 _0068_
*88 _0069_
*89 _0070_
*90 _0071_
*91 _0072_
*92 _0073_
*93 _0074_
*94 _0075_
*95 _0076_
*96 _0077_
*97 _0078_
*98 _0079_
*99 _0080_
*100 _0081_
*101 _0082_
*102 _0083_
*103 _0084_
*104 _0085_
*105 _0086_
*106 _0087_
*107 _0088_
*108 _0089_
*109 _0090_
*110 _0091_
*111 _0092_
*112 _0093_
*113 _0094_
*114 _0095_
*115 _0096_
*116 _0097_
*117 _0098_
*118 _0099_
*119 _0100_
*120 _0101_
*121 _0102_
*122 _0103_
*123 _0104_
*124 _0105_
*125 _0106_
*126 _0107_
*127 _0108_
*128 _0109_
*129 _0110_
*130 _0111_
*131 _0112_
*132 _0113_
*133 _0114_
*134 _0115_
*135 _0116_
*136 _0117_
*137 _0118_
*138 _0119_
*139 _0120_
*140 _0121_
*141 _0122_
*142 _0123_
*143 _0124_
*144 _0125_
*145 _0126_
*146 _0127_
*147 _0128_
*148 _0129_
*149 _0130_
*150 _0131_
*151 _0132_
*152 _0133_
*153 _0134_
*154 _0135_
*155 _0136_
*156 _0137_
*157 _0138_
*158 _0139_
*159 _0140_
*160 _0141_
*161 _0142_
*162 _0143_
*163 _0144_
*164 _0145_
*165 _0146_
*166 _0147_
*167 _0148_
*168 _0149_
*169 _0150_
*170 _0151_
*171 _0152_
*172 _0153_
*173 _0154_
*174 _0155_
*175 _0156_
*176 _0157_
*177 _0158_
*178 _0159_
*179 _0160_
*180 _0161_
*181 _0162_
*182 _0163_
*183 _0164_
*184 _0165_
*185 _0166_
*186 _0167_
*187 _0168_
*188 _0169_
*189 _0170_
*190 _0171_
*191 _0172_
*192 _0173_
*193 _0174_
*194 _0175_
*195 _0176_
*196 _0177_
*197 _0178_
*198 _0179_
*199 _0180_
*200 _0181_
*201 _0182_
*202 _0183_
*203 _0184_
*204 _0185_
*205 _0186_
*206 _0187_
*207 _0188_
*208 _0189_
*209 _0190_
*210 _0191_
*211 _0192_
*212 _0193_
*213 _0194_
*214 _0195_
*215 _0196_
*216 _0197_
*217 _0198_
*218 _0199_
*219 _0200_
*220 _0201_
*221 _0202_
*222 _0203_
*223 _0204_
*224 _0205_
*225 _0206_
*226 _0207_
*227 _0208_
*228 _0209_
*229 _0210_
*230 _0211_
*231 _0212_
*232 _0213_
*233 _0214_
*234 _0215_
*235 _0216_
*236 _0217_
*237 _0218_
*238 _0219_
*239 _0220_
*240 _0221_
*241 _0222_
*242 _0223_
*243 _0224_
*244 _0225_
*245 _0226_
*246 _0227_
*247 _0228_
*248 _0229_
*249 _0230_
*250 _0231_
*251 _0232_
*252 _0233_
*253 _0234_
*254 _0235_
*255 _0236_
*256 _0237_
*257 _0238_
*258 _0239_
*259 _0240_
*260 _0241_
*261 _0242_
*262 _0243_
*263 _0244_
*264 _0245_
*265 _0246_
*266 _0247_
*267 _0248_
*268 _0249_
*269 _0250_
*270 _0251_
*271 _0252_
*272 _0253_
*273 _0254_
*274 _0255_
*275 _0256_
*276 _0257_
*277 _0258_
*278 _0259_
*279 _0260_
*280 _0261_
*281 _0262_
*282 _0263_
*283 _0264_
*284 _0265_
*285 _0266_
*286 _0267_
*287 _0268_
*288 _0269_
*289 _0270_
*290 _0271_
*291 _0272_
*292 _0273_
*293 _0274_
*294 _0275_
*295 _0276_
*296 _0277_
*297 _0278_
*298 _0279_
*299 _0280_
*300 _0281_
*301 _0282_
*302 _0283_
*303 _0284_
*304 _0285_
*305 _0286_
*306 _0287_
*307 _0288_
*308 _0289_
*309 _0290_
*310 _0291_
*311 _0292_
*312 _0293_
*313 _0294_
*314 _0295_
*315 _0296_
*316 _0297_
*317 _0298_
*318 _0299_
*319 _0300_
*320 _0301_
*321 _0302_
*322 _0303_
*323 _0304_
*324 _0305_
*325 _0306_
*326 _0307_
*327 _0308_
*328 _0309_
*329 _0310_
*330 _0311_
*331 _0312_
*332 _0313_
*333 _0314_
*334 _0315_
*335 _0316_
*336 _0317_
*337 _0318_
*338 _0319_
*339 _0320_
*340 _0321_
*341 _0322_
*342 _0323_
*343 _0324_
*344 _0325_
*345 _0326_
*346 _0327_
*347 _0328_
*348 _0329_
*349 _0330_
*350 _0331_
*351 _0332_
*352 _0333_
*353 _0334_
*354 _0335_
*355 _0336_
*356 _0337_
*357 _0338_
*358 _0339_
*359 _0340_
*360 _0341_
*361 _0342_
*362 _0343_
*363 _0344_
*364 _0345_
*365 _0346_
*366 _0347_
*367 _0348_
*368 _0349_
*369 _0350_
*370 _0351_
*371 _0352_
*372 _0353_
*373 _0354_
*374 _0355_
*375 _0356_
*376 _0357_
*377 _0358_
*378 _0359_
*379 _0360_
*380 _0361_
*381 _0362_
*382 _0363_
*383 _0364_
*384 _0365_
*385 _0366_
*386 _0367_
*387 _0368_
*388 _0369_
*389 _0370_
*390 _0371_
*391 _0372_
*392 _0373_
*393 _0374_
*394 _0375_
*395 _0376_
*396 _0377_
*397 _0378_
*398 _0379_
*399 _0380_
*400 _0381_
*401 _0382_
*402 _0383_
*403 _0384_
*404 _0385_
*405 _0386_
*406 _0387_
*407 _0388_
*408 _0389_
*409 _0390_
*410 _0391_
*411 _0392_
*412 _0393_
*413 _0394_
*414 _0395_
*415 _0396_
*416 _0397_
*417 _0398_
*418 _0399_
*419 _0400_
*420 _0401_
*421 _0402_
*422 _0403_
*423 _0404_
*424 _0405_
*425 _0406_
*426 _0407_
*427 _0408_
*428 _0409_
*429 _0410_
*430 _0411_
*431 _0412_
*432 _0413_
*433 _0414_
*434 _0415_
*435 _0416_
*436 _0417_
*437 _0418_
*438 _0419_
*439 _0420_
*440 _0421_
*441 _0422_
*442 _0423_
*443 _0424_
*444 _0425_
*445 _0426_
*446 _0427_
*447 _0428_
*448 _0429_
*449 _0430_
*450 _0431_
*451 _0432_
*452 _0433_
*453 _0434_
*454 _0435_
*455 _0436_
*456 _0437_
*457 _0438_
*458 _0439_
*459 _0440_
*460 _0441_
*461 _0442_
*462 _0443_
*463 _0444_
*464 _0445_
*465 _0446_
*466 _0447_
*467 _0448_
*468 _0449_
*469 _0450_
*470 _0451_
*471 _0452_
*472 _0453_
*473 _0454_
*474 _0455_
*475 _0456_
*476 _0457_
*477 _0458_
*478 _0459_
*479 _0460_
*480 _0461_
*481 _0462_
*482 _0463_
*483 _0464_
*484 _0465_
*485 _0466_
*486 _0467_
*487 _0468_
*488 _0469_
*489 _0470_
*490 _0471_
*491 _0472_
*492 _0473_
*493 _0474_
*494 _0475_
*495 _0476_
*496 _0477_
*497 _0478_
*498 _0479_
*499 _0480_
*500 _0481_
*501 _0482_
*502 _0483_
*503 _0484_
*504 _0485_
*505 _0486_
*506 _0487_
*507 _0488_
*508 _0489_
*509 _0490_
*510 _0491_
*511 _0492_
*512 _0493_
*513 _0494_
*514 _0495_
*515 _0496_
*516 _0497_
*517 _0498_
*518 _0499_
*519 _0500_
*520 _0501_
*521 _0502_
*522 _0503_
*523 _0504_
*524 _0505_
*525 _0506_
*526 _0507_
*527 _0508_
*528 _0509_
*529 _0510_
*530 _0511_
*531 _0512_
*532 _0513_
*533 _0514_
*534 _0515_
*535 _0516_
*536 _0517_
*537 _0518_
*538 _0519_
*539 _0520_
*540 _0521_
*541 _0522_
*542 _0523_
*543 _0524_
*544 _0525_
*545 _0526_
*546 _0527_
*547 _0528_
*548 _0529_
*549 _0530_
*550 _0531_
*551 _0532_
*552 _0533_
*553 _0534_
*554 _0535_
*555 _0536_
*556 _0537_
*557 _0538_
*558 _0539_
*559 _0540_
*560 _0541_
*561 _0542_
*562 _0543_
*563 _0544_
*564 _0545_
*565 _0546_
*566 _0547_
*567 _0548_
*568 _0549_
*569 _0550_
*570 _0551_
*571 _0552_
*572 _0553_
*573 _0554_
*574 _0555_
*575 _0556_
*576 _0557_
*577 _0558_
*578 _0559_
*579 _0560_
*580 _0561_
*581 _0562_
*582 _0563_
*583 _0564_
*584 _0565_
*585 _0566_
*586 _0567_
*587 _0568_
*588 _0569_
*589 _0570_
*590 _0571_
*591 _0572_
*592 _0573_
*593 _0574_
*594 _0575_
*595 _0576_
*596 _0577_
*597 _0578_
*598 _0579_
*599 _0580_
*600 _0581_
*601 _0582_
*602 _0583_
*603 _0584_
*604 _0585_
*605 _0586_
*606 _0587_
*607 _0588_
*608 _0589_
*609 _0590_
*610 _0591_
*611 _0592_
*612 _0593_
*613 _0594_
*614 _0595_
*615 _0596_
*616 _0597_
*617 _0598_
*618 _0599_
*619 _0600_
*620 _0601_
*621 _0602_
*622 _0603_
*623 _0604_
*624 _0605_
*625 _0606_
*626 _0607_
*627 _0608_
*628 _0609_
*629 _0610_
*630 _0611_
*631 _0612_
*632 _0613_
*633 _0614_
*634 _0615_
*635 _0616_
*636 _0617_
*637 _0618_
*638 _0619_
*639 _0620_
*640 _0621_
*641 _0622_
*642 _0623_
*643 _0624_
*644 _0625_
*645 _0626_
*646 _0627_
*647 _0628_
*648 _0629_
*649 _0630_
*650 _0631_
*651 _0632_
*652 _0633_
*653 _0634_
*654 _0635_
*655 _0636_
*656 _0637_
*657 _0638_
*658 _0639_
*659 _0640_
*660 _0641_
*661 _0642_
*662 _0643_
*663 _0644_
*664 _0645_
*665 _0646_
*666 _0647_
*667 _0648_
*668 _0649_
*669 _0650_
*670 _0651_
*671 _0652_
*672 _0653_
*673 _0654_
*674 _0655_
*675 _0656_
*676 _0657_
*677 _0658_
*678 _0659_
*679 _0660_
*680 _0661_
*681 _0662_
*682 _0663_
*683 _0664_
*684 _0665_
*685 _0666_
*686 _0667_
*687 _0668_
*688 _0669_
*689 _0670_
*690 _0671_
*691 _0672_
*692 _0673_
*693 _0674_
*694 _0675_
*695 _0676_
*696 _0677_
*697 _0678_
*698 _0679_
*699 _0680_
*700 _0681_
*701 _0682_
*702 _0683_
*703 _0684_
*704 _0685_
*705 _0686_
*706 _0687_
*707 _0688_
*708 _0689_
*709 _0690_
*710 _0691_
*711 _0692_
*712 _0693_
*713 _0694_
*714 _0695_
*715 _0696_
*716 _0697_
*717 _0698_
*718 _0699_
*719 _0700_
*720 _0701_
*721 _0702_
*722 _0703_
*723 _0704_
*724 _0705_
*725 _0706_
*726 _0707_
*727 _0708_
*728 _0709_
*729 _0710_
*730 _0711_
*731 _0712_
*732 _0713_
*733 _0714_
*734 _0715_
*735 _0716_
*736 _0717_
*737 _0718_
*738 _0719_
*739 _0720_
*740 _0721_
*741 _0722_
*742 _0723_
*743 _0724_
*744 _0725_
*745 _0726_
*746 _0727_
*747 _0728_
*748 _0729_
*749 _0730_
*750 _0731_
*751 _0732_
*752 _0733_
*753 _0734_
*754 _0735_
*755 _0736_
*756 _0737_
*757 _0738_
*758 _0739_
*759 _0740_
*760 _0741_
*761 _0742_
*762 _0743_
*763 _0744_
*764 _0745_
*765 _0746_
*766 _0747_
*767 _0748_
*768 _0749_
*769 _0750_
*770 _0751_
*771 _0752_
*772 _0753_
*773 _0754_
*774 _0755_
*775 _0756_
*776 _0757_
*777 _0758_
*778 _0759_
*779 _0760_
*780 _0761_
*781 _0762_
*782 _0763_
*783 _0764_
*784 _0765_
*785 _0766_
*786 _0767_
*787 _0768_
*788 _0769_
*789 _0770_
*790 _0771_
*791 _0772_
*792 _0773_
*793 _0774_
*794 _0775_
*795 _0776_
*796 _0777_
*797 _0778_
*798 _0779_
*799 _0780_
*800 _0781_
*801 _0782_
*802 _0783_
*803 _0784_
*804 _0785_
*805 _0786_
*806 _0787_
*807 _0788_
*808 _0789_
*809 _0790_
*810 _0791_
*811 _0792_
*812 _0793_
*813 _0794_
*814 _0795_
*815 _0796_
*816 _0797_
*817 _0798_
*818 _0799_
*819 _0800_
*820 _0801_
*821 _0802_
*822 _0803_
*823 _0804_
*824 _0805_
*825 _0806_
*826 _0807_
*827 _0808_
*828 _0809_
*829 _0810_
*830 _0811_
*831 _0812_
*832 _0813_
*833 _0814_
*834 _0815_
*835 _0816_
*836 _0817_
*837 _0818_
*838 _0819_
*839 _0820_
*840 _0821_
*841 _0822_
*842 _0823_
*843 _0824_
*844 _0825_
*845 _0826_
*846 _0827_
*847 _0828_
*848 _0829_
*849 _0830_
*850 _0831_
*851 _0832_
*852 _0833_
*853 _0834_
*854 _0835_
*855 _0836_
*856 _0837_
*857 _0838_
*858 _0839_
*859 _0840_
*860 _0841_
*861 _0842_
*862 _0843_
*863 _0844_
*864 _0845_
*865 _0846_
*866 _0847_
*867 _0848_
*868 _0849_
*869 _0850_
*870 _0851_
*871 _0852_
*872 _0853_
*873 _0854_
*874 _0855_
*875 _0856_
*876 _0857_
*877 _0858_
*878 _0859_
*879 _0860_
*880 _0861_
*881 _0862_
*882 _0863_
*883 _0864_
*884 _0865_
*885 _0866_
*886 _0867_
*887 _0868_
*888 _0869_
*889 _0870_
*890 _0871_
*891 _0872_
*892 _0873_
*893 _0874_
*894 _0875_
*895 _0876_
*896 _0877_
*897 _0878_
*898 _0879_
*899 _0880_
*900 _0881_
*901 _0882_
*902 _0883_
*903 _0884_
*904 _0885_
*905 _0886_
*906 _0887_
*907 _0888_
*908 _0889_
*909 _0890_
*910 _0891_
*911 _0892_
*912 _0893_
*913 _0894_
*914 _0895_
*915 _0896_
*916 _0897_
*917 _0898_
*918 _0899_
*919 _0900_
*920 _0901_
*921 _0902_
*922 _0903_
*923 _0904_
*924 _0905_
*925 _0906_
*926 _0907_
*927 _0908_
*928 _0909_
*929 _0910_
*930 _0911_
*931 _0912_
*932 _0913_
*933 _0914_
*934 _0915_
*935 _0916_
*936 clknet_0_io_in[0]
*937 clknet_4_0_0_io_in[0]
*938 clknet_4_10_0_io_in[0]
*939 clknet_4_11_0_io_in[0]
*940 clknet_4_12_0_io_in[0]
*941 clknet_4_13_0_io_in[0]
*942 clknet_4_14_0_io_in[0]
*943 clknet_4_15_0_io_in[0]
*944 clknet_4_1_0_io_in[0]
*945 clknet_4_2_0_io_in[0]
*946 clknet_4_3_0_io_in[0]
*947 clknet_4_4_0_io_in[0]
*948 clknet_4_5_0_io_in[0]
*949 clknet_4_6_0_io_in[0]
*950 clknet_4_7_0_io_in[0]
*951 clknet_4_8_0_io_in[0]
*952 clknet_4_9_0_io_in[0]
*953 net1
*954 net2
*955 net3
*956 net4
*957 net5
*958 net6
*959 net7
*960 simon1\.millis_counter\[0\]
*961 simon1\.millis_counter\[1\]
*962 simon1\.millis_counter\[2\]
*963 simon1\.millis_counter\[3\]
*964 simon1\.millis_counter\[4\]
*965 simon1\.millis_counter\[5\]
*966 simon1\.millis_counter\[6\]
*967 simon1\.millis_counter\[7\]
*968 simon1\.millis_counter\[8\]
*969 simon1\.millis_counter\[9\]
*970 simon1\.next_random\[0\]
*971 simon1\.next_random\[1\]
*972 simon1\.play1\.freq\[0\]
*973 simon1\.play1\.freq\[1\]
*974 simon1\.play1\.freq\[2\]
*975 simon1\.play1\.freq\[3\]
*976 simon1\.play1\.freq\[4\]
*977 simon1\.play1\.freq\[5\]
*978 simon1\.play1\.freq\[6\]
*979 simon1\.play1\.freq\[7\]
*980 simon1\.play1\.freq\[8\]
*981 simon1\.play1\.freq\[9\]
*982 simon1\.play1\.sound
*983 simon1\.play1\.tick_counter\[0\]
*984 simon1\.play1\.tick_counter\[10\]
*985 simon1\.play1\.tick_counter\[11\]
*986 simon1\.play1\.tick_counter\[12\]
*987 simon1\.play1\.tick_counter\[13\]
*988 simon1\.play1\.tick_counter\[14\]
*989 simon1\.play1\.tick_counter\[15\]
*990 simon1\.play1\.tick_counter\[16\]
*991 simon1\.play1\.tick_counter\[17\]
*992 simon1\.play1\.tick_counter\[18\]
*993 simon1\.play1\.tick_counter\[19\]
*994 simon1\.play1\.tick_counter\[1\]
*995 simon1\.play1\.tick_counter\[20\]
*996 simon1\.play1\.tick_counter\[21\]
*997 simon1\.play1\.tick_counter\[22\]
*998 simon1\.play1\.tick_counter\[23\]
*999 simon1\.play1\.tick_counter\[24\]
*1000 simon1\.play1\.tick_counter\[25\]
*1001 simon1\.play1\.tick_counter\[26\]
*1002 simon1\.play1\.tick_counter\[27\]
*1003 simon1\.play1\.tick_counter\[28\]
*1004 simon1\.play1\.tick_counter\[29\]
*1005 simon1\.play1\.tick_counter\[2\]
*1006 simon1\.play1\.tick_counter\[30\]
*1007 simon1\.play1\.tick_counter\[31\]
*1008 simon1\.play1\.tick_counter\[3\]
*1009 simon1\.play1\.tick_counter\[4\]
*1010 simon1\.play1\.tick_counter\[5\]
*1011 simon1\.play1\.tick_counter\[6\]
*1012 simon1\.play1\.tick_counter\[7\]
*1013 simon1\.play1\.tick_counter\[8\]
*1014 simon1\.play1\.tick_counter\[9\]
*1015 simon1\.seq\[0\]\[0\]
*1016 simon1\.seq\[0\]\[1\]
*1017 simon1\.seq\[10\]\[0\]
*1018 simon1\.seq\[10\]\[1\]
*1019 simon1\.seq\[11\]\[0\]
*1020 simon1\.seq\[11\]\[1\]
*1021 simon1\.seq\[12\]\[0\]
*1022 simon1\.seq\[12\]\[1\]
*1023 simon1\.seq\[13\]\[0\]
*1024 simon1\.seq\[13\]\[1\]
*1025 simon1\.seq\[14\]\[0\]
*1026 simon1\.seq\[14\]\[1\]
*1027 simon1\.seq\[15\]\[0\]
*1028 simon1\.seq\[15\]\[1\]
*1029 simon1\.seq\[16\]\[0\]
*1030 simon1\.seq\[16\]\[1\]
*1031 simon1\.seq\[17\]\[0\]
*1032 simon1\.seq\[17\]\[1\]
*1033 simon1\.seq\[18\]\[0\]
*1034 simon1\.seq\[18\]\[1\]
*1035 simon1\.seq\[19\]\[0\]
*1036 simon1\.seq\[19\]\[1\]
*1037 simon1\.seq\[1\]\[0\]
*1038 simon1\.seq\[1\]\[1\]
*1039 simon1\.seq\[20\]\[0\]
*1040 simon1\.seq\[20\]\[1\]
*1041 simon1\.seq\[21\]\[0\]
*1042 simon1\.seq\[21\]\[1\]
*1043 simon1\.seq\[22\]\[0\]
*1044 simon1\.seq\[22\]\[1\]
*1045 simon1\.seq\[23\]\[0\]
*1046 simon1\.seq\[23\]\[1\]
*1047 simon1\.seq\[24\]\[0\]
*1048 simon1\.seq\[24\]\[1\]
*1049 simon1\.seq\[25\]\[0\]
*1050 simon1\.seq\[25\]\[1\]
*1051 simon1\.seq\[26\]\[0\]
*1052 simon1\.seq\[26\]\[1\]
*1053 simon1\.seq\[27\]\[0\]
*1054 simon1\.seq\[27\]\[1\]
*1055 simon1\.seq\[28\]\[0\]
*1056 simon1\.seq\[28\]\[1\]
*1057 simon1\.seq\[29\]\[0\]
*1058 simon1\.seq\[29\]\[1\]
*1059 simon1\.seq\[2\]\[0\]
*1060 simon1\.seq\[2\]\[1\]
*1061 simon1\.seq\[30\]\[0\]
*1062 simon1\.seq\[30\]\[1\]
*1063 simon1\.seq\[31\]\[0\]
*1064 simon1\.seq\[31\]\[1\]
*1065 simon1\.seq\[3\]\[0\]
*1066 simon1\.seq\[3\]\[1\]
*1067 simon1\.seq\[4\]\[0\]
*1068 simon1\.seq\[4\]\[1\]
*1069 simon1\.seq\[5\]\[0\]
*1070 simon1\.seq\[5\]\[1\]
*1071 simon1\.seq\[6\]\[0\]
*1072 simon1\.seq\[6\]\[1\]
*1073 simon1\.seq\[7\]\[0\]
*1074 simon1\.seq\[7\]\[1\]
*1075 simon1\.seq\[8\]\[0\]
*1076 simon1\.seq\[8\]\[1\]
*1077 simon1\.seq\[9\]\[0\]
*1078 simon1\.seq\[9\]\[1\]
*1079 simon1\.seq_counter\[0\]
*1080 simon1\.seq_counter\[1\]
*1081 simon1\.seq_counter\[2\]
*1082 simon1\.seq_counter\[3\]
*1083 simon1\.seq_counter\[4\]
*1084 simon1\.seq_length\[0\]
*1085 simon1\.seq_length\[1\]
*1086 simon1\.seq_length\[2\]
*1087 simon1\.seq_length\[3\]
*1088 simon1\.seq_length\[4\]
*1089 simon1\.state\[0\]
*1090 simon1\.state\[1\]
*1091 simon1\.state\[2\]
*1092 simon1\.state\[3\]
*1093 simon1\.state\[4\]
*1094 simon1\.state\[5\]
*1095 simon1\.state\[6\]
*1096 simon1\.state\[7\]
*1097 simon1\.tick_counter\[0\]
*1098 simon1\.tick_counter\[10\]
*1099 simon1\.tick_counter\[11\]
*1100 simon1\.tick_counter\[12\]
*1101 simon1\.tick_counter\[13\]
*1102 simon1\.tick_counter\[14\]
*1103 simon1\.tick_counter\[15\]
*1104 simon1\.tick_counter\[1\]
*1105 simon1\.tick_counter\[2\]
*1106 simon1\.tick_counter\[3\]
*1107 simon1\.tick_counter\[4\]
*1108 simon1\.tick_counter\[5\]
*1109 simon1\.tick_counter\[6\]
*1110 simon1\.tick_counter\[7\]
*1111 simon1\.tick_counter\[8\]
*1112 simon1\.tick_counter\[9\]
*1113 simon1\.tone_sequence_counter\[0\]
*1114 simon1\.tone_sequence_counter\[1\]
*1115 simon1\.tone_sequence_counter\[2\]
*1116 simon1\.user_input\[0\]
*1117 simon1\.user_input\[1\]
*1118 ANTENNA_1
*1119 ANTENNA_10
*1120 ANTENNA_11
*1121 ANTENNA_12
*1122 ANTENNA_13
*1123 ANTENNA_14
*1124 ANTENNA_15
*1125 ANTENNA_16
*1126 ANTENNA_17
*1127 ANTENNA_18
*1128 ANTENNA_19
*1129 ANTENNA_2
*1130 ANTENNA_20
*1131 ANTENNA_21
*1132 ANTENNA_22
*1133 ANTENNA_23
*1134 ANTENNA_24
*1135 ANTENNA_25
*1136 ANTENNA_26
*1137 ANTENNA_27
*1138 ANTENNA_28
*1139 ANTENNA_29
*1140 ANTENNA_3
*1141 ANTENNA_30
*1142 ANTENNA_31
*1143 ANTENNA_32
*1144 ANTENNA_33
*1145 ANTENNA_34
*1146 ANTENNA_35
*1147 ANTENNA_36
*1148 ANTENNA_37
*1149 ANTENNA_38
*1150 ANTENNA_39
*1151 ANTENNA_4
*1152 ANTENNA_40
*1153 ANTENNA_41
*1154 ANTENNA_42
*1155 ANTENNA_43
*1156 ANTENNA_44
*1157 ANTENNA_45
*1158 ANTENNA_46
*1159 ANTENNA_47
*1160 ANTENNA_48
*1161 ANTENNA_49
*1162 ANTENNA_5
*1163 ANTENNA_50
*1164 ANTENNA_51
*1165 ANTENNA_52
*1166 ANTENNA_53
*1167 ANTENNA_6
*1168 ANTENNA_7
*1169 ANTENNA_8
*1170 ANTENNA_9
*1171 FILLER_0_107
*1172 FILLER_0_111
*1173 FILLER_0_113
*1174 FILLER_0_131
*1175 FILLER_0_139
*1176 FILLER_0_141
*1177 FILLER_0_152
*1178 FILLER_0_164
*1179 FILLER_0_169
*1180 FILLER_0_181
*1181 FILLER_0_193
*1182 FILLER_0_197
*1183 FILLER_0_209
*1184 FILLER_0_21
*1185 FILLER_0_221
*1186 FILLER_0_225
*1187 FILLER_0_233
*1188 FILLER_0_239
*1189 FILLER_0_247
*1190 FILLER_0_25
*1191 FILLER_0_251
*1192 FILLER_0_253
*1193 FILLER_0_261
*1194 FILLER_0_269
*1195 FILLER_0_276
*1196 FILLER_0_281
*1197 FILLER_0_286
*1198 FILLER_0_29
*1199 FILLER_0_290
*1200 FILLER_0_297
*1201 FILLER_0_3
*1202 FILLER_0_47
*1203 FILLER_0_54
*1204 FILLER_0_57
*1205 FILLER_0_62
*1206 FILLER_0_82
*1207 FILLER_0_85
*1208 FILLER_0_89
*1209 FILLER_10_100
*1210 FILLER_10_120
*1211 FILLER_10_132
*1212 FILLER_10_141
*1213 FILLER_10_155
*1214 FILLER_10_174
*1215 FILLER_10_186
*1216 FILLER_10_190
*1217 FILLER_10_194
*1218 FILLER_10_197
*1219 FILLER_10_202
*1220 FILLER_10_210
*1221 FILLER_10_219
*1222 FILLER_10_228
*1223 FILLER_10_236
*1224 FILLER_10_244
*1225 FILLER_10_253
*1226 FILLER_10_258
*1227 FILLER_10_26
*1228 FILLER_10_270
*1229 FILLER_10_276
*1230 FILLER_10_281
*1231 FILLER_10_29
*1232 FILLER_10_294
*1233 FILLER_10_298
*1234 FILLER_10_3
*1235 FILLER_10_42
*1236 FILLER_10_62
*1237 FILLER_10_82
*1238 FILLER_10_85
*1239 FILLER_10_9
*1240 FILLER_10_92
*1241 FILLER_11_11
*1242 FILLER_11_110
*1243 FILLER_11_113
*1244 FILLER_11_121
*1245 FILLER_11_139
*1246 FILLER_11_145
*1247 FILLER_11_148
*1248 FILLER_11_15
*1249 FILLER_11_166
*1250 FILLER_11_169
*1251 FILLER_11_187
*1252 FILLER_11_195
*1253 FILLER_11_200
*1254 FILLER_11_207
*1255 FILLER_11_222
*1256 FILLER_11_225
*1257 FILLER_11_230
*1258 FILLER_11_238
*1259 FILLER_11_244
*1260 FILLER_11_251
*1261 FILLER_11_258
*1262 FILLER_11_265
*1263 FILLER_11_271
*1264 FILLER_11_278
*1265 FILLER_11_281
*1266 FILLER_11_293
*1267 FILLER_11_3
*1268 FILLER_11_32
*1269 FILLER_11_36
*1270 FILLER_11_54
*1271 FILLER_11_57
*1272 FILLER_11_70
*1273 FILLER_11_90
*1274 FILLER_12_103
*1275 FILLER_12_121
*1276 FILLER_12_133
*1277 FILLER_12_139
*1278 FILLER_12_141
*1279 FILLER_12_153
*1280 FILLER_12_157
*1281 FILLER_12_175
*1282 FILLER_12_187
*1283 FILLER_12_195
*1284 FILLER_12_197
*1285 FILLER_12_208
*1286 FILLER_12_212
*1287 FILLER_12_216
*1288 FILLER_12_223
*1289 FILLER_12_237
*1290 FILLER_12_244
*1291 FILLER_12_253
*1292 FILLER_12_259
*1293 FILLER_12_26
*1294 FILLER_12_262
*1295 FILLER_12_285
*1296 FILLER_12_29
*1297 FILLER_12_295
*1298 FILLER_12_3
*1299 FILLER_12_54
*1300 FILLER_12_62
*1301 FILLER_12_82
*1302 FILLER_12_85
*1303 FILLER_12_9
*1304 FILLER_12_91
*1305 FILLER_13_108
*1306 FILLER_13_113
*1307 FILLER_13_127
*1308 FILLER_13_145
*1309 FILLER_13_166
*1310 FILLER_13_169
*1311 FILLER_13_173
*1312 FILLER_13_181
*1313 FILLER_13_19
*1314 FILLER_13_191
*1315 FILLER_13_216
*1316 FILLER_13_225
*1317 FILLER_13_229
*1318 FILLER_13_238
*1319 FILLER_13_255
*1320 FILLER_13_268
*1321 FILLER_13_281
*1322 FILLER_13_289
*1323 FILLER_13_297
*1324 FILLER_13_3
*1325 FILLER_13_40
*1326 FILLER_13_54
*1327 FILLER_13_57
*1328 FILLER_13_64
*1329 FILLER_13_7
*1330 FILLER_13_70
*1331 FILLER_13_88
*1332 FILLER_14_106
*1333 FILLER_14_110
*1334 FILLER_14_129
*1335 FILLER_14_137
*1336 FILLER_14_141
*1337 FILLER_14_153
*1338 FILLER_14_157
*1339 FILLER_14_176
*1340 FILLER_14_184
*1341 FILLER_14_194
*1342 FILLER_14_197
*1343 FILLER_14_220
*1344 FILLER_14_233
*1345 FILLER_14_243
*1346 FILLER_14_251
*1347 FILLER_14_253
*1348 FILLER_14_26
*1349 FILLER_14_261
*1350 FILLER_14_286
*1351 FILLER_14_29
*1352 FILLER_14_296
*1353 FILLER_14_3
*1354 FILLER_14_37
*1355 FILLER_14_60
*1356 FILLER_14_81
*1357 FILLER_14_85
*1358 FILLER_14_89
*1359 FILLER_14_9
*1360 FILLER_15_110
*1361 FILLER_15_113
*1362 FILLER_15_121
*1363 FILLER_15_126
*1364 FILLER_15_145
*1365 FILLER_15_166
*1366 FILLER_15_169
*1367 FILLER_15_187
*1368 FILLER_15_198
*1369 FILLER_15_207
*1370 FILLER_15_215
*1371 FILLER_15_222
*1372 FILLER_15_225
*1373 FILLER_15_23
*1374 FILLER_15_233
*1375 FILLER_15_245
*1376 FILLER_15_257
*1377 FILLER_15_263
*1378 FILLER_15_269
*1379 FILLER_15_277
*1380 FILLER_15_281
*1381 FILLER_15_296
*1382 FILLER_15_3
*1383 FILLER_15_31
*1384 FILLER_15_48
*1385 FILLER_15_60
*1386 FILLER_15_64
*1387 FILLER_15_83
*1388 FILLER_15_89
*1389 FILLER_16_118
*1390 FILLER_16_138
*1391 FILLER_16_141
*1392 FILLER_16_153
*1393 FILLER_16_176
*1394 FILLER_16_188
*1395 FILLER_16_194
*1396 FILLER_16_197
*1397 FILLER_16_202
*1398 FILLER_16_212
*1399 FILLER_16_219
*1400 FILLER_16_22
*1401 FILLER_16_230
*1402 FILLER_16_244
*1403 FILLER_16_253
*1404 FILLER_16_26
*1405 FILLER_16_262
*1406 FILLER_16_266
*1407 FILLER_16_289
*1408 FILLER_16_29
*1409 FILLER_16_296
*1410 FILLER_16_3
*1411 FILLER_16_34
*1412 FILLER_16_40
*1413 FILLER_16_57
*1414 FILLER_16_78
*1415 FILLER_16_85
*1416 FILLER_16_90
*1417 FILLER_17_11
*1418 FILLER_17_110
*1419 FILLER_17_113
*1420 FILLER_17_126
*1421 FILLER_17_146
*1422 FILLER_17_166
*1423 FILLER_17_169
*1424 FILLER_17_18
*1425 FILLER_17_187
*1426 FILLER_17_193
*1427 FILLER_17_197
*1428 FILLER_17_206
*1429 FILLER_17_213
*1430 FILLER_17_217
*1431 FILLER_17_22
*1432 FILLER_17_222
*1433 FILLER_17_225
*1434 FILLER_17_233
*1435 FILLER_17_245
*1436 FILLER_17_253
*1437 FILLER_17_259
*1438 FILLER_17_268
*1439 FILLER_17_274
*1440 FILLER_17_278
*1441 FILLER_17_281
*1442 FILLER_17_285
*1443 FILLER_17_295
*1444 FILLER_17_3
*1445 FILLER_17_41
*1446 FILLER_17_45
*1447 FILLER_17_54
*1448 FILLER_17_57
*1449 FILLER_17_62
*1450 FILLER_17_87
*1451 FILLER_17_91
*1452 FILLER_18_101
*1453 FILLER_18_118
*1454 FILLER_18_138
*1455 FILLER_18_141
*1456 FILLER_18_154
*1457 FILLER_18_174
*1458 FILLER_18_182
*1459 FILLER_18_188
*1460 FILLER_18_197
*1461 FILLER_18_202
*1462 FILLER_18_206
*1463 FILLER_18_21
*1464 FILLER_18_216
*1465 FILLER_18_223
*1466 FILLER_18_234
*1467 FILLER_18_240
*1468 FILLER_18_247
*1469 FILLER_18_251
*1470 FILLER_18_253
*1471 FILLER_18_258
*1472 FILLER_18_266
*1473 FILLER_18_27
*1474 FILLER_18_289
*1475 FILLER_18_29
*1476 FILLER_18_293
*1477 FILLER_18_297
*1478 FILLER_18_3
*1479 FILLER_18_47
*1480 FILLER_18_62
*1481 FILLER_18_82
*1482 FILLER_18_85
*1483 FILLER_18_97
*1484 FILLER_19_106
*1485 FILLER_19_113
*1486 FILLER_19_125
*1487 FILLER_19_137
*1488 FILLER_19_145
*1489 FILLER_19_162
*1490 FILLER_19_169
*1491 FILLER_19_182
*1492 FILLER_19_190
*1493 FILLER_19_197
*1494 FILLER_19_206
*1495 FILLER_19_213
*1496 FILLER_19_217
*1497 FILLER_19_222
*1498 FILLER_19_225
*1499 FILLER_19_233
*1500 FILLER_19_240
*1501 FILLER_19_25
*1502 FILLER_19_250
*1503 FILLER_19_257
*1504 FILLER_19_264
*1505 FILLER_19_271
*1506 FILLER_19_279
*1507 FILLER_19_281
*1508 FILLER_19_288
*1509 FILLER_19_297
*1510 FILLER_19_3
*1511 FILLER_19_33
*1512 FILLER_19_52
*1513 FILLER_19_57
*1514 FILLER_19_7
*1515 FILLER_19_74
*1516 FILLER_19_86
*1517 FILLER_1_110
*1518 FILLER_1_113
*1519 FILLER_1_133
*1520 FILLER_1_144
*1521 FILLER_1_148
*1522 FILLER_1_166
*1523 FILLER_1_169
*1524 FILLER_1_187
*1525 FILLER_1_191
*1526 FILLER_1_203
*1527 FILLER_1_209
*1528 FILLER_1_22
*1529 FILLER_1_222
*1530 FILLER_1_225
*1531 FILLER_1_242
*1532 FILLER_1_253
*1533 FILLER_1_266
*1534 FILLER_1_272
*1535 FILLER_1_278
*1536 FILLER_1_28
*1537 FILLER_1_281
*1538 FILLER_1_287
*1539 FILLER_1_295
*1540 FILLER_1_3
*1541 FILLER_1_45
*1542 FILLER_1_54
*1543 FILLER_1_57
*1544 FILLER_1_68
*1545 FILLER_1_72
*1546 FILLER_1_90
*1547 FILLER_20_107
*1548 FILLER_20_128
*1549 FILLER_20_141
*1550 FILLER_20_153
*1551 FILLER_20_173
*1552 FILLER_20_193
*1553 FILLER_20_197
*1554 FILLER_20_207
*1555 FILLER_20_214
*1556 FILLER_20_218
*1557 FILLER_20_226
*1558 FILLER_20_230
*1559 FILLER_20_236
*1560 FILLER_20_243
*1561 FILLER_20_251
*1562 FILLER_20_253
*1563 FILLER_20_259
*1564 FILLER_20_26
*1565 FILLER_20_284
*1566 FILLER_20_29
*1567 FILLER_20_297
*1568 FILLER_20_3
*1569 FILLER_20_47
*1570 FILLER_20_68
*1571 FILLER_20_80
*1572 FILLER_20_85
*1573 FILLER_21_110
*1574 FILLER_21_113
*1575 FILLER_21_126
*1576 FILLER_21_149
*1577 FILLER_21_161
*1578 FILLER_21_167
*1579 FILLER_21_169
*1580 FILLER_21_181
*1581 FILLER_21_187
*1582 FILLER_21_195
*1583 FILLER_21_20
*1584 FILLER_21_206
*1585 FILLER_21_210
*1586 FILLER_21_219
*1587 FILLER_21_223
*1588 FILLER_21_225
*1589 FILLER_21_230
*1590 FILLER_21_234
*1591 FILLER_21_24
*1592 FILLER_21_243
*1593 FILLER_21_255
*1594 FILLER_21_267
*1595 FILLER_21_271
*1596 FILLER_21_278
*1597 FILLER_21_281
*1598 FILLER_21_292
*1599 FILLER_21_298
*1600 FILLER_21_43
*1601 FILLER_21_50
*1602 FILLER_21_57
*1603 FILLER_21_76
*1604 FILLER_21_88
*1605 FILLER_22_104
*1606 FILLER_22_116
*1607 FILLER_22_133
*1608 FILLER_22_139
*1609 FILLER_22_141
*1610 FILLER_22_151
*1611 FILLER_22_174
*1612 FILLER_22_182
*1613 FILLER_22_187
*1614 FILLER_22_194
*1615 FILLER_22_197
*1616 FILLER_22_207
*1617 FILLER_22_215
*1618 FILLER_22_22
*1619 FILLER_22_223
*1620 FILLER_22_227
*1621 FILLER_22_235
*1622 FILLER_22_242
*1623 FILLER_22_250
*1624 FILLER_22_253
*1625 FILLER_22_26
*1626 FILLER_22_261
*1627 FILLER_22_284
*1628 FILLER_22_29
*1629 FILLER_22_292
*1630 FILLER_22_297
*1631 FILLER_22_3
*1632 FILLER_22_42
*1633 FILLER_22_62
*1634 FILLER_22_82
*1635 FILLER_22_85
*1636 FILLER_23_105
*1637 FILLER_23_111
*1638 FILLER_23_113
*1639 FILLER_23_132
*1640 FILLER_23_136
*1641 FILLER_23_146
*1642 FILLER_23_166
*1643 FILLER_23_169
*1644 FILLER_23_178
*1645 FILLER_23_182
*1646 FILLER_23_188
*1647 FILLER_23_195
*1648 FILLER_23_202
*1649 FILLER_23_215
*1650 FILLER_23_222
*1651 FILLER_23_225
*1652 FILLER_23_229
*1653 FILLER_23_236
*1654 FILLER_23_243
*1655 FILLER_23_25
*1656 FILLER_23_255
*1657 FILLER_23_267
*1658 FILLER_23_279
*1659 FILLER_23_281
*1660 FILLER_23_287
*1661 FILLER_23_29
*1662 FILLER_23_297
*1663 FILLER_23_3
*1664 FILLER_23_48
*1665 FILLER_23_57
*1666 FILLER_23_7
*1667 FILLER_23_72
*1668 FILLER_23_93
*1669 FILLER_24_103
*1670 FILLER_24_124
*1671 FILLER_24_138
*1672 FILLER_24_141
*1673 FILLER_24_150
*1674 FILLER_24_172
*1675 FILLER_24_180
*1676 FILLER_24_191
*1677 FILLER_24_195
*1678 FILLER_24_197
*1679 FILLER_24_202
*1680 FILLER_24_210
*1681 FILLER_24_215
*1682 FILLER_24_221
*1683 FILLER_24_225
*1684 FILLER_24_237
*1685 FILLER_24_24
*1686 FILLER_24_246
*1687 FILLER_24_253
*1688 FILLER_24_265
*1689 FILLER_24_277
*1690 FILLER_24_281
*1691 FILLER_24_29
*1692 FILLER_24_291
*1693 FILLER_24_3
*1694 FILLER_24_34
*1695 FILLER_24_55
*1696 FILLER_24_59
*1697 FILLER_24_78
*1698 FILLER_24_85
*1699 FILLER_25_106
*1700 FILLER_25_113
*1701 FILLER_25_132
*1702 FILLER_25_142
*1703 FILLER_25_16
*1704 FILLER_25_162
*1705 FILLER_25_169
*1706 FILLER_25_177
*1707 FILLER_25_187
*1708 FILLER_25_195
*1709 FILLER_25_204
*1710 FILLER_25_211
*1711 FILLER_25_218
*1712 FILLER_25_225
*1713 FILLER_25_230
*1714 FILLER_25_234
*1715 FILLER_25_257
*1716 FILLER_25_269
*1717 FILLER_25_277
*1718 FILLER_25_281
*1719 FILLER_25_292
*1720 FILLER_25_298
*1721 FILLER_25_3
*1722 FILLER_25_35
*1723 FILLER_25_49
*1724 FILLER_25_55
*1725 FILLER_25_57
*1726 FILLER_25_65
*1727 FILLER_25_68
*1728 FILLER_25_8
*1729 FILLER_25_86
*1730 FILLER_26_106
*1731 FILLER_26_118
*1732 FILLER_26_126
*1733 FILLER_26_134
*1734 FILLER_26_141
*1735 FILLER_26_147
*1736 FILLER_26_161
*1737 FILLER_26_170
*1738 FILLER_26_179
*1739 FILLER_26_191
*1740 FILLER_26_195
*1741 FILLER_26_197
*1742 FILLER_26_202
*1743 FILLER_26_209
*1744 FILLER_26_22
*1745 FILLER_26_224
*1746 FILLER_26_231
*1747 FILLER_26_242
*1748 FILLER_26_250
*1749 FILLER_26_253
*1750 FILLER_26_265
*1751 FILLER_26_269
*1752 FILLER_26_279
*1753 FILLER_26_287
*1754 FILLER_26_29
*1755 FILLER_26_297
*1756 FILLER_26_3
*1757 FILLER_26_41
*1758 FILLER_26_45
*1759 FILLER_26_62
*1760 FILLER_26_82
*1761 FILLER_26_85
*1762 FILLER_26_89
*1763 FILLER_27_105
*1764 FILLER_27_110
*1765 FILLER_27_113
*1766 FILLER_27_120
*1767 FILLER_27_133
*1768 FILLER_27_141
*1769 FILLER_27_149
*1770 FILLER_27_157
*1771 FILLER_27_164
*1772 FILLER_27_169
*1773 FILLER_27_181
*1774 FILLER_27_187
*1775 FILLER_27_191
*1776 FILLER_27_199
*1777 FILLER_27_209
*1778 FILLER_27_22
*1779 FILLER_27_222
*1780 FILLER_27_225
*1781 FILLER_27_230
*1782 FILLER_27_238
*1783 FILLER_27_260
*1784 FILLER_27_275
*1785 FILLER_27_279
*1786 FILLER_27_281
*1787 FILLER_27_29
*1788 FILLER_27_292
*1789 FILLER_27_298
*1790 FILLER_27_3