*SPEF "ieee 1481-1999"
*DESIGN "wormy_top"
*DATE "11:11:11 Fri 11 11, 1111"
*VENDOR "OpenRCX"
*PROGRAM "Parallel Extraction"
*VERSION "1.0"
*DESIGN_FLOW "NAME_SCOPE LOCAL" "PIN_CAP NONE"
*DIVIDER /
*DELIMITER :
*BUS_DELIMITER []
*T_UNIT 1 NS
*C_UNIT 1 PF
*R_UNIT 1 OHM
*L_UNIT 1 HENRY

*NAME_MAP
*1 io_in[0]
*2 io_in[1]
*3 io_in[2]
*4 io_in[3]
*5 io_in[4]
*6 io_in[5]
*7 io_in[6]
*8 io_in[7]
*9 io_out[0]
*10 io_out[1]
*11 io_out[2]
*12 io_out[3]
*13 io_out[4]
*14 io_out[5]
*15 io_out[6]
*16 io_out[7]
*19 _0000_
*20 _0001_
*21 _0002_
*22 _0003_
*23 _0004_
*24 _0005_
*25 _0006_
*26 _0007_
*27 _0008_
*28 _0009_
*29 _0010_
*30 _0011_
*31 _0012_
*32 _0013_
*33 _0014_
*34 _0015_
*35 _0016_
*36 _0017_
*37 _0018_
*38 _0019_
*39 _0020_
*40 _0021_
*41 _0022_
*42 _0023_
*43 _0024_
*44 _0025_
*45 _0026_
*46 _0027_
*47 _0028_
*48 _0029_
*49 _0030_
*50 _0031_
*51 _0032_
*52 _0033_
*53 _0034_
*54 _0035_
*55 _0036_
*56 _0037_
*57 _0038_
*58 _0039_
*59 _0040_
*60 _0041_
*61 _0042_
*62 _0043_
*63 _0044_
*64 _0045_
*65 _0046_
*66 _0047_
*67 _0048_
*68 _0049_
*69 _0050_
*70 _0051_
*71 _0052_
*72 _0053_
*73 _0054_
*74 _0055_
*75 _0056_
*76 _0057_
*77 _0058_
*78 _0059_
*79 _0060_
*80 _0061_
*81 _0062_
*82 _0063_
*83 _0064_
*84 _0065_
*85 _0066_
*86 _0067_
*87 _0068_
*88 _0069_
*89 _0070_
*90 _0071_
*91 _0072_
*92 _0073_
*93 _0074_
*94 _0075_
*95 _0076_
*96 _0077_
*97 _0078_
*98 _0079_
*99 _0080_
*100 _0081_
*101 _0082_
*102 _0083_
*103 _0084_
*104 _0085_
*105 _0086_
*106 _0087_
*107 _0088_
*108 _0089_
*109 _0090_
*110 _0091_
*111 _0092_
*112 _0093_
*113 _0094_
*114 _0095_
*115 _0096_
*116 _0097_
*117 _0098_
*118 _0099_
*119 _0100_
*120 _0101_
*121 _0102_
*122 _0103_
*123 _0104_
*124 _0105_
*125 _0106_
*126 _0107_
*127 _0108_
*128 _0109_
*129 _0110_
*130 _0111_
*131 _0112_
*132 _0113_
*133 _0114_
*134 _0115_
*135 _0116_
*136 _0117_
*137 _0118_
*138 _0119_
*139 _0120_
*140 _0121_
*141 _0122_
*142 _0123_
*143 _0124_
*144 _0125_
*145 _0126_
*146 _0127_
*147 _0128_
*148 _0129_
*149 _0130_
*150 _0131_
*151 _0132_
*152 _0133_
*153 _0134_
*154 _0135_
*155 _0136_
*156 _0137_
*157 _0138_
*158 _0139_
*159 _0140_
*160 _0141_
*161 _0142_
*162 _0143_
*163 _0144_
*164 _0145_
*165 _0146_
*166 _0147_
*167 _0148_
*168 _0149_
*169 _0150_
*170 _0151_
*171 _0152_
*172 _0153_
*173 _0154_
*174 _0155_
*175 _0156_
*176 _0157_
*177 _0158_
*178 _0159_
*179 _0160_
*180 _0161_
*181 _0162_
*182 _0163_
*183 _0164_
*184 _0165_
*185 _0166_
*186 _0167_
*187 _0168_
*188 _0169_
*189 _0170_
*190 _0171_
*191 _0172_
*192 _0173_
*193 _0174_
*194 _0175_
*195 _0176_
*196 _0177_
*197 _0178_
*198 _0179_
*199 _0180_
*200 _0181_
*201 _0182_
*202 _0183_
*203 _0184_
*204 _0185_
*205 _0186_
*206 _0187_
*207 _0188_
*208 _0189_
*209 _0190_
*210 _0191_
*211 _0192_
*212 _0193_
*213 _0194_
*214 _0195_
*215 _0196_
*216 _0197_
*217 _0198_
*218 _0199_
*219 _0200_
*220 _0201_
*221 _0202_
*222 _0203_
*223 _0204_
*224 _0205_
*225 _0206_
*226 _0207_
*227 _0208_
*228 _0209_
*229 _0210_
*230 _0211_
*231 _0212_
*232 _0213_
*233 _0214_
*234 _0215_
*235 _0216_
*236 _0217_
*237 _0218_
*238 _0219_
*239 _0220_
*240 _0221_
*241 _0222_
*242 _0223_
*243 _0224_
*244 _0225_
*245 _0226_
*246 _0227_
*247 _0228_
*248 _0229_
*249 _0230_
*250 _0231_
*251 _0232_
*252 _0233_
*253 _0234_
*254 _0235_
*255 _0236_
*256 _0237_
*257 _0238_
*258 _0239_
*259 _0240_
*260 _0241_
*261 _0242_
*262 _0243_
*263 _0244_
*264 _0245_
*265 _0246_
*266 _0247_
*267 _0248_
*268 _0249_
*269 _0250_
*270 _0251_
*271 _0252_
*272 _0253_
*273 _0254_
*274 _0255_
*275 _0256_
*276 _0257_
*277 _0258_
*278 _0259_
*279 _0260_
*280 _0261_
*281 _0262_
*282 _0263_
*283 _0264_
*284 _0265_
*285 _0266_
*286 _0267_
*287 _0268_
*288 _0269_
*289 _0270_
*290 _0271_
*291 _0272_
*292 _0273_
*293 _0274_
*294 _0275_
*295 _0276_
*296 _0277_
*297 _0278_
*298 _0279_
*299 _0280_
*300 _0281_
*301 _0282_
*302 _0283_
*303 _0284_
*304 _0285_
*305 _0286_
*306 _0287_
*307 _0288_
*308 _0289_
*309 _0290_
*310 _0291_
*311 _0292_
*312 _0293_
*313 _0294_
*314 _0295_
*315 _0296_
*316 _0297_
*317 _0298_
*318 _0299_
*319 _0300_
*320 _0301_
*321 _0302_
*322 _0303_
*323 _0304_
*324 _0305_
*325 _0306_
*326 _0307_
*327 _0308_
*328 _0309_
*329 _0310_
*330 _0311_
*331 _0312_
*332 _0313_
*333 _0314_
*334 _0315_
*335 _0316_
*336 _0317_
*337 _0318_
*338 _0319_
*339 _0320_
*340 _0321_
*341 _0322_
*342 _0323_
*343 _0324_
*344 _0325_
*345 _0326_
*346 _0327_
*347 _0328_
*348 _0329_
*349 _0330_
*350 _0331_
*351 _0332_
*352 _0333_
*353 _0334_
*354 _0335_
*355 _0336_
*356 _0337_
*357 _0338_
*358 _0339_
*359 _0340_
*360 _0341_
*361 _0342_
*362 _0343_
*363 _0344_
*364 _0345_
*365 _0346_
*366 _0347_
*367 _0348_
*368 _0349_
*369 _0350_
*370 _0351_
*371 _0352_
*372 _0353_
*373 _0354_
*374 _0355_
*375 _0356_
*376 _0357_
*377 _0358_
*378 _0359_
*379 _0360_
*380 _0361_
*381 _0362_
*382 _0363_
*383 _0364_
*384 _0365_
*385 _0366_
*386 _0367_
*387 _0368_
*388 _0369_
*389 _0370_
*390 _0371_
*391 _0372_
*392 _0373_
*393 _0374_
*394 _0375_
*395 _0376_
*396 _0377_
*397 _0378_
*398 _0379_
*399 _0380_
*400 _0381_
*401 _0382_
*402 _0383_
*403 _0384_
*404 _0385_
*405 _0386_
*406 _0387_
*407 _0388_
*408 _0389_
*409 _0390_
*410 _0391_
*411 _0392_
*412 _0393_
*413 _0394_
*414 _0395_
*415 _0396_
*416 _0397_
*417 _0398_
*418 _0399_
*419 _0400_
*420 _0401_
*421 _0402_
*422 _0403_
*423 _0404_
*424 _0405_
*425 _0406_
*426 _0407_
*427 _0408_
*428 _0409_
*429 _0410_
*430 _0411_
*431 _0412_
*432 _0413_
*433 _0414_
*434 _0415_
*435 _0416_
*436 _0417_
*437 _0418_
*438 _0419_
*439 _0420_
*440 _0421_
*441 _0422_
*442 _0423_
*443 _0424_
*444 _0425_
*445 _0426_
*446 _0427_
*447 _0428_
*448 _0429_
*449 _0430_
*450 _0431_
*451 _0432_
*452 _0433_
*453 _0434_
*454 _0435_
*455 _0436_
*456 _0437_
*457 _0438_
*458 _0439_
*459 _0440_
*460 _0441_
*461 _0442_
*462 _0443_
*463 _0444_
*464 _0445_
*465 _0446_
*466 _0447_
*467 _0448_
*468 _0449_
*469 _0450_
*470 _0451_
*471 _0452_
*472 _0453_
*473 _0454_
*474 _0455_
*475 _0456_
*476 _0457_
*477 _0458_
*478 _0459_
*479 _0460_
*480 _0461_
*481 _0462_
*482 _0463_
*483 _0464_
*484 _0465_
*485 _0466_
*486 _0467_
*487 _0468_
*488 _0469_
*489 _0470_
*490 _0471_
*491 _0472_
*492 _0473_
*493 _0474_
*494 _0475_
*495 _0476_
*496 _0477_
*497 _0478_
*498 _0479_
*499 _0480_
*500 _0481_
*501 _0482_
*502 _0483_
*503 _0484_
*504 _0485_
*505 _0486_
*506 _0487_
*507 _0488_
*508 _0489_
*509 _0490_
*510 _0491_
*511 _0492_
*512 _0493_
*513 _0494_
*514 _0495_
*515 _0496_
*516 _0497_
*517 _0498_
*518 _0499_
*519 _0500_
*520 _0501_
*521 _0502_
*522 _0503_
*523 _0504_
*524 _0505_
*525 _0506_
*526 _0507_
*527 _0508_
*528 _0509_
*529 _0510_
*530 _0511_
*531 _0512_
*532 _0513_
*533 _0514_
*534 _0515_
*535 _0516_
*536 _0517_
*537 _0518_
*538 _0519_
*539 _0520_
*540 _0521_
*541 _0522_
*542 _0523_
*543 _0524_
*544 _0525_
*545 _0526_
*546 _0527_
*547 _0528_
*548 _0529_
*549 _0530_
*550 _0531_
*551 _0532_
*552 _0533_
*553 _0534_
*554 _0535_
*555 _0536_
*556 _0537_
*557 _0538_
*558 _0539_
*559 _0540_
*560 _0541_
*561 _0542_
*562 _0543_
*563 _0544_
*564 _0545_
*565 _0546_
*566 _0547_
*567 _0548_
*568 _0549_
*569 _0550_
*570 _0551_
*571 _0552_
*572 _0553_
*573 _0554_
*574 _0555_
*575 _0556_
*576 _0557_
*577 _0558_
*578 _0559_
*579 _0560_
*580 _0561_
*581 _0562_
*582 _0563_
*583 _0564_
*584 _0565_
*585 _0566_
*586 _0567_
*587 _0568_
*588 _0569_
*589 _0570_
*590 _0571_
*591 _0572_
*592 _0573_
*593 _0574_
*594 _0575_
*595 _0576_
*596 _0577_
*597 _0578_
*598 _0579_
*599 _0580_
*600 _0581_
*601 _0582_
*602 _0583_
*603 _0584_
*604 _0585_
*605 clknet_0_io_in[0]
*606 clknet_3_0__leaf_io_in[0]
*607 clknet_3_1__leaf_io_in[0]
*608 clknet_3_2__leaf_io_in[0]
*609 clknet_3_3__leaf_io_in[0]
*610 clknet_3_4__leaf_io_in[0]
*611 clknet_3_5__leaf_io_in[0]
*612 clknet_3_6__leaf_io_in[0]
*613 clknet_3_7__leaf_io_in[0]
*614 multiplexer\.arena_on\[0\]
*615 multiplexer\.arena_on\[10\]
*616 multiplexer\.arena_on\[11\]
*617 multiplexer\.arena_on\[12\]
*618 multiplexer\.arena_on\[13\]
*619 multiplexer\.arena_on\[14\]
*620 multiplexer\.arena_on\[15\]
*621 multiplexer\.arena_on\[1\]
*622 multiplexer\.arena_on\[2\]
*623 multiplexer\.arena_on\[3\]
*624 multiplexer\.arena_on\[4\]
*625 multiplexer\.arena_on\[5\]
*626 multiplexer\.arena_on\[6\]
*627 multiplexer\.arena_on\[7\]
*628 multiplexer\.arena_on\[8\]
*629 multiplexer\.arena_on\[9\]
*630 multiplexer\.location\[0\]
*631 multiplexer\.location\[1\]
*632 multiplexer\.location\[2\]
*633 multiplexer\.location\[3\]
*634 net1
*635 net2
*636 net3
*637 net4
*638 net5
*639 net6
*640 net7
*641 net8
*642 net9
*643 user_input\.button_pushed
*644 user_input\.button_state\[0\]
*645 user_input\.button_state\[1\]
*646 user_input\.buttons_r1\[0\]
*647 user_input\.buttons_r1\[1\]
*648 user_input\.buttons_r1\[2\]
*649 user_input\.buttons_r1\[3\]
*650 user_input\.buttons_sync\[0\]
*651 user_input\.buttons_sync\[1\]
*652 user_input\.buttons_sync\[2\]
*653 user_input\.buttons_sync\[3\]
*654 wormy\.arena_dir0\[0\]
*655 wormy\.arena_dir0\[10\]
*656 wormy\.arena_dir0\[11\]
*657 wormy\.arena_dir0\[12\]
*658 wormy\.arena_dir0\[13\]
*659 wormy\.arena_dir0\[14\]
*660 wormy\.arena_dir0\[15\]
*661 wormy\.arena_dir0\[1\]
*662 wormy\.arena_dir0\[2\]
*663 wormy\.arena_dir0\[3\]
*664 wormy\.arena_dir0\[4\]
*665 wormy\.arena_dir0\[5\]
*666 wormy\.arena_dir0\[6\]
*667 wormy\.arena_dir0\[7\]
*668 wormy\.arena_dir0\[8\]
*669 wormy\.arena_dir0\[9\]
*670 wormy\.arena_dir1\[0\]
*671 wormy\.arena_dir1\[10\]
*672 wormy\.arena_dir1\[11\]
*673 wormy\.arena_dir1\[12\]
*674 wormy\.arena_dir1\[13\]
*675 wormy\.arena_dir1\[14\]
*676 wormy\.arena_dir1\[15\]
*677 wormy\.arena_dir1\[1\]
*678 wormy\.arena_dir1\[2\]
*679 wormy\.arena_dir1\[3\]
*680 wormy\.arena_dir1\[4\]
*681 wormy\.arena_dir1\[5\]
*682 wormy\.arena_dir1\[6\]
*683 wormy\.arena_dir1\[7\]
*684 wormy\.arena_dir1\[8\]
*685 wormy\.arena_dir1\[9\]
*686 wormy\.collision
*687 wormy\.counter\[0\]
*688 wormy\.counter\[1\]
*689 wormy\.counter\[2\]
*690 wormy\.counter\[3\]
*691 wormy\.counter\[4\]
*692 wormy\.counter\[5\]
*693 wormy\.counter\[6\]
*694 wormy\.counter\[7\]
*695 wormy\.counter\[8\]
*696 wormy\.head_idx\[0\]
*697 wormy\.head_idx\[1\]
*698 wormy\.head_idx\[2\]
*699 wormy\.head_idx\[3\]
*700 wormy\.tail_idx\[0\]
*701 wormy\.tail_idx\[1\]
*702 wormy\.tail_idx\[2\]
*703 wormy\.tail_idx\[3\]
*704 wormy\.update
*705 ANTENNA_1
*706 ANTENNA_10
*707 ANTENNA_11
*708 ANTENNA_12
*709 ANTENNA_13
*710 ANTENNA_14
*711 ANTENNA_2
*712 ANTENNA_3
*713 ANTENNA_4
*714 ANTENNA_5
*715 ANTENNA_6
*716 ANTENNA_7
*717 ANTENNA_8
*718 ANTENNA_9
*719 FILLER_0_103
*720 FILLER_0_110
*721 FILLER_0_113
*722 FILLER_0_117
*723 FILLER_0_123
*724 FILLER_0_132
*725 FILLER_0_141
*726 FILLER_0_148
*727 FILLER_0_154
*728 FILLER_0_160
*729 FILLER_0_169
*730 FILLER_0_175
*731 FILLER_0_182
*732 FILLER_0_194
*733 FILLER_0_197
*734 FILLER_0_209
*735 FILLER_0_221
*736 FILLER_0_225
*737 FILLER_0_237
*738 FILLER_0_249
*739 FILLER_0_253
*740 FILLER_0_26
*741 FILLER_0_265
*742 FILLER_0_277
*743 FILLER_0_281
*744 FILLER_0_29
*745 FILLER_0_293
*746 FILLER_0_3
*747 FILLER_0_54
*748 FILLER_0_57
*749 FILLER_0_76
*750 FILLER_0_85
*751 FILLER_10_103
*752 FILLER_10_111
*753 FILLER_10_121
*754 FILLER_10_130
*755 FILLER_10_138
*756 FILLER_10_141
*757 FILLER_10_151
*758 FILLER_10_163
*759 FILLER_10_175
*760 FILLER_10_185
*761 FILLER_10_193
*762 FILLER_10_197
*763 FILLER_10_209
*764 FILLER_10_22
*765 FILLER_10_221
*766 FILLER_10_225
*767 FILLER_10_233
*768 FILLER_10_245
*769 FILLER_10_251
*770 FILLER_10_253
*771 FILLER_10_265
*772 FILLER_10_277
*773 FILLER_10_289
*774 FILLER_10_29
*775 FILLER_10_297
*776 FILLER_10_3
*777 FILLER_10_48
*778 FILLER_10_56
*779 FILLER_10_75
*780 FILLER_10_83
*781 FILLER_10_85
*782 FILLER_11_100
*783 FILLER_11_110
*784 FILLER_11_113
*785 FILLER_11_129
*786 FILLER_11_149
*787 FILLER_11_162
*788 FILLER_11_169
*789 FILLER_11_184
*790 FILLER_11_190
*791 FILLER_11_196
*792 FILLER_11_209
*793 FILLER_11_218
*794 FILLER_11_225
*795 FILLER_11_234
*796 FILLER_11_243
*797 FILLER_11_256
*798 FILLER_11_269
*799 FILLER_11_277
*800 FILLER_11_281
*801 FILLER_11_293
*802 FILLER_11_3
*803 FILLER_11_36
*804 FILLER_11_48
*805 FILLER_11_54
*806 FILLER_11_57
*807 FILLER_11_78
*808 FILLER_11_8
*809 FILLER_11_96
*810 FILLER_12_103
*811 FILLER_12_115
*812 FILLER_12_124
*813 FILLER_12_138
*814 FILLER_12_141
*815 FILLER_12_153
*816 FILLER_12_164
*817 FILLER_12_172
*818 FILLER_12_179
*819 FILLER_12_191
*820 FILLER_12_195
*821 FILLER_12_197
*822 FILLER_12_203
*823 FILLER_12_209
*824 FILLER_12_223
*825 FILLER_12_237
*826 FILLER_12_249
*827 FILLER_12_253
*828 FILLER_12_26
*829 FILLER_12_265
*830 FILLER_12_277
*831 FILLER_12_289
*832 FILLER_12_29
*833 FILLER_12_297
*834 FILLER_12_3
*835 FILLER_12_41
*836 FILLER_12_65
*837 FILLER_12_73
*838 FILLER_12_8
*839 FILLER_12_82
*840 FILLER_12_85
*841 FILLER_13_101
*842 FILLER_13_110
*843 FILLER_13_113
*844 FILLER_13_122
*845 FILLER_13_130
*846 FILLER_13_142
*847 FILLER_13_150
*848 FILLER_13_160
*849 FILLER_13_169
*850 FILLER_13_175
*851 FILLER_13_183
*852 FILLER_13_191
*853 FILLER_13_201
*854 FILLER_13_213
*855 FILLER_13_220
*856 FILLER_13_225
*857 FILLER_13_231
*858 FILLER_13_235
*859 FILLER_13_247
*860 FILLER_13_25
*861 FILLER_13_259
*862 FILLER_13_271
*863 FILLER_13_279
*864 FILLER_13_281
*865 FILLER_13_293
*866 FILLER_13_3
*867 FILLER_13_46
*868 FILLER_13_54
*869 FILLER_13_57
*870 FILLER_13_75
*871 FILLER_13_79
*872 FILLER_14_103
*873 FILLER_14_115
*874 FILLER_14_119
*875 FILLER_14_125
*876 FILLER_14_138
*877 FILLER_14_141
*878 FILLER_14_154
*879 FILLER_14_166
*880 FILLER_14_177
*881 FILLER_14_190
*882 FILLER_14_197
*883 FILLER_14_205
*884 FILLER_14_217
*885 FILLER_14_22
*886 FILLER_14_226
*887 FILLER_14_238
*888 FILLER_14_250
*889 FILLER_14_253
*890 FILLER_14_265
*891 FILLER_14_277
*892 FILLER_14_289
*893 FILLER_14_29
*894 FILLER_14_297
*895 FILLER_14_3
*896 FILLER_14_33
*897 FILLER_14_50
*898 FILLER_14_58
*899 FILLER_14_78
*900 FILLER_14_85
*901 FILLER_15_100
*902 FILLER_15_109
*903 FILLER_15_113
*904 FILLER_15_120
*905 FILLER_15_127
*906 FILLER_15_139
*907 FILLER_15_151
*908 FILLER_15_163
*909 FILLER_15_167
*910 FILLER_15_169
*911 FILLER_15_181
*912 FILLER_15_193
*913 FILLER_15_197
*914 FILLER_15_205
*915 FILLER_15_217
*916 FILLER_15_22
*917 FILLER_15_223
*918 FILLER_15_225
*919 FILLER_15_229
*920 FILLER_15_239
*921 FILLER_15_243
*922 FILLER_15_262
*923 FILLER_15_268
*924 FILLER_15_272
*925 FILLER_15_281
*926 FILLER_15_293
*927 FILLER_15_3
*928 FILLER_15_42
*929 FILLER_15_54
*930 FILLER_15_57
*931 FILLER_15_80
*932 FILLER_16_103
*933 FILLER_16_109
*934 FILLER_16_118
*935 FILLER_16_128
*936 FILLER_16_141
*937 FILLER_16_150
*938 FILLER_16_160
*939 FILLER_16_168
*940 FILLER_16_180
*941 FILLER_16_190
*942 FILLER_16_197
*943 FILLER_16_202
*944 FILLER_16_214
*945 FILLER_16_22
*946 FILLER_16_226
*947 FILLER_16_238
*948 FILLER_16_250
*949 FILLER_16_253
*950 FILLER_16_261
*951 FILLER_16_273
*952 FILLER_16_285
*953 FILLER_16_29
*954 FILLER_16_297
*955 FILLER_16_3
*956 FILLER_16_41
*957 FILLER_16_65
*958 FILLER_16_82
*959 FILLER_16_85
*960 FILLER_17_109
*961 FILLER_17_113
*962 FILLER_17_121
*963 FILLER_17_133
*964 FILLER_17_145
*965 FILLER_17_165
*966 FILLER_17_169
*967 FILLER_17_180
*968 FILLER_17_190
*969 FILLER_17_202
*970 FILLER_17_214
*971 FILLER_17_222
*972 FILLER_17_225
*973 FILLER_17_234
*974 FILLER_17_240
*975 FILLER_17_247
*976 FILLER_17_257
*977 FILLER_17_269
*978 FILLER_17_277
*979 FILLER_17_281
*980 FILLER_17_293
*981 FILLER_17_3
*982 FILLER_17_36
*983 FILLER_17_48
*984 FILLER_17_57
*985 FILLER_17_77
*986 FILLER_17_8
*987 FILLER_17_97
*988 FILLER_18_100
*989 FILLER_18_104
*990 FILLER_18_113
*991 FILLER_18_126
*992 FILLER_18_134
*993 FILLER_18_141
*994 FILLER_18_151
*995 FILLER_18_162
*996 FILLER_18_169
*997 FILLER_18_181
*998 FILLER_18_193
*999 FILLER_18_197
*1000 FILLER_18_205
*1001 FILLER_18_215
*1002 FILLER_18_227
*1003 FILLER_18_239
*1004 FILLER_18_251
*1005 FILLER_18_253
*1006 FILLER_18_26
*1007 FILLER_18_276
*1008 FILLER_18_288
*1009 FILLER_18_29
*1010 FILLER_18_296
*1011 FILLER_18_3
*1012 FILLER_18_41
*1013 FILLER_18_67
*1014 FILLER_18_79
*1015 FILLER_18_83
*1016 FILLER_18_85
*1017 FILLER_18_91
*1018 FILLER_19_106
*1019 FILLER_19_113
*1020 FILLER_19_121
*1021 FILLER_19_129
*1022 FILLER_19_141
*1023 FILLER_19_153
*1024 FILLER_19_165
*1025 FILLER_19_169
*1026 FILLER_19_177
*1027 FILLER_19_181
*1028 FILLER_19_189
*1029 FILLER_19_201
*1030 FILLER_19_213
*1031 FILLER_19_22
*1032 FILLER_19_221
*1033 FILLER_19_225
*1034 FILLER_19_231
*1035 FILLER_19_239
*1036 FILLER_19_244
*1037 FILLER_19_256
*1038 FILLER_19_272
*1039 FILLER_19_281
*1040 FILLER_19_293
*1041 FILLER_19_3
*1042 FILLER_19_51
*1043 FILLER_19_55
*1044 FILLER_19_57
*1045 FILLER_19_77
*1046 FILLER_19_85
*1047 FILLER_19_90
*1048 FILLER_19_97
*1049 FILLER_1_100
*1050 FILLER_1_11
*1051 FILLER_1_110
*1052 FILLER_1_113
*1053 FILLER_1_123
*1054 FILLER_1_129
*1055 FILLER_1_135
*1056 FILLER_1_15
*1057 FILLER_1_150
*1058 FILLER_1_164
*1059 FILLER_1_169
*1060 FILLER_1_180
*1061 FILLER_1_192
*1062 FILLER_1_202
*1063 FILLER_1_214
*1064 FILLER_1_222
*1065 FILLER_1_225
*1066 FILLER_1_237
*1067 FILLER_1_249
*1068 FILLER_1_261
*1069 FILLER_1_273
*1070 FILLER_1_279
*1071 FILLER_1_281
*1072 FILLER_1_293
*1073 FILLER_1_3
*1074 FILLER_1_33
*1075 FILLER_1_54
*1076 FILLER_1_57
*1077 FILLER_1_61
*1078 FILLER_1_80
*1079 FILLER_20_105
*1080 FILLER_20_119
*1081 FILLER_20_129
*1082 FILLER_20_137
*1083 FILLER_20_141
*1084 FILLER_20_153
*1085 FILLER_20_157
*1086 FILLER_20_165
*1087 FILLER_20_177
*1088 FILLER_20_189
*1089 FILLER_20_195
*1090 FILLER_20_197
*1091 FILLER_20_209
*1092 FILLER_20_215
*1093 FILLER_20_22
*1094 FILLER_20_224
*1095 FILLER_20_237
*1096 FILLER_20_249
*1097 FILLER_20_253
*1098 FILLER_20_26
*1099 FILLER_20_265
*1100 FILLER_20_277
*1101 FILLER_20_289
*1102 FILLER_20_29
*1103 FILLER_20_297
*1104 FILLER_20_3
*1105 FILLER_20_34
*1106 FILLER_20_40
*1107 FILLER_20_57
*1108 FILLER_20_78
*1109 FILLER_20_85
*1110 FILLER_20_94
*1111 FILLER_20_98
*1112 FILLER_21_102
*1113 FILLER_21_110
*1114 FILLER_21_113
*1115 FILLER_21_124
*1116 FILLER_21_132
*1117 FILLER_21_155
*1118 FILLER_21_167
*1119 FILLER_21_169
*1120 FILLER_21_177
*1121 FILLER_21_189
*1122 FILLER_21_197
*1123 FILLER_21_205
*1124 FILLER_21_217
*1125 FILLER_21_22
*1126 FILLER_21_223
*1127 FILLER_21_225
*1128 FILLER_21_237
*1129 FILLER_21_245
*1130 FILLER_21_255
*1131 FILLER_21_267
*1132 FILLER_21_279
*1133 FILLER_21_281
*1134 FILLER_21_293
*1135 FILLER_21_3
*1136 FILLER_21_30
*1137 FILLER_21_47
*1138 FILLER_21_55
*1139 FILLER_21_57
*1140 FILLER_21_78
*1141 FILLER_21_90
*1142 FILLER_22_109
*1143 FILLER_22_121
*1144 FILLER_22_125
*1145 FILLER_22_134
*1146 FILLER_22_141
*1147 FILLER_22_154
*1148 FILLER_22_166
*1149 FILLER_22_178
*1150 FILLER_22_190
*1151 FILLER_22_197
*1152 FILLER_22_206
*1153 FILLER_22_21
*1154 FILLER_22_214
*1155 FILLER_22_224
*1156 FILLER_22_236
*1157 FILLER_22_248
*1158 FILLER_22_253
*1159 FILLER_22_259
*1160 FILLER_22_266
*1161 FILLER_22_27
*1162 FILLER_22_278
*1163 FILLER_22_29
*1164 FILLER_22_290
*1165 FILLER_22_298
*1166 FILLER_22_3
*1167 FILLER_22_47
*1168 FILLER_22_59
*1169 FILLER_22_78
*1170 FILLER_22_85
*1171 FILLER_22_97
*1172 FILLER_23_110
*1173 FILLER_23_113
*1174 FILLER_23_117
*1175 FILLER_23_139
*1176 FILLER_23_15
*1177 FILLER_23_151
*1178 FILLER_23_157
*1179 FILLER_23_166
*1180 FILLER_23_169
*1181 FILLER_23_192
*1182 FILLER_23_208
*1183 FILLER_23_220
*1184 FILLER_23_225
*1185 FILLER_23_237
*1186 FILLER_23_249
*1187 FILLER_23_261
*1188 FILLER_23_273
*1189 FILLER_23_279
*1190 FILLER_23_281
*1191 FILLER_23_293
*1192 FILLER_23_3
*1193 FILLER_23_38
*1194 FILLER_23_49
*1195 FILLER_23_55
*1196 FILLER_23_57
*1197 FILLER_23_82
*1198 FILLER_23_94
*1199 FILLER_24_111
*1200 FILLER_24_123
*1201 FILLER_24_135
*1202 FILLER_24_139
*1203 FILLER_24_141
*1204 FILLER_24_15
*1205 FILLER_24_150
*1206 FILLER_24_158
*1207 FILLER_24_167
*1208 FILLER_24_181
*1209 FILLER_24_193
*1210 FILLER_24_197
*1211 FILLER_24_209
*1212 FILLER_24_221
*1213 FILLER_24_238
*1214 FILLER_24_250
*1215 FILLER_24_253
*1216 FILLER_24_265
*1217 FILLER_24_27
*1218 FILLER_24_277
*1219 FILLER_24_289
*1220 FILLER_24_29
*1221 FILLER_24_297
*1222 FILLER_24_3
*1223 FILLER_24_40
*1224 FILLER_24_62
*1225 FILLER_24_82
*1226 FILLER_24_85
*1227 FILLER_24_93
*1228 FILLER_24_99
*1229 FILLER_25_103
*1230 FILLER_25_111
*1231 FILLER_25_113
*1232 FILLER_25_122
*1233 FILLER_25_134
*1234 FILLER_25_139
*1235 FILLER_25_151
*1236 FILLER_25_161
*1237 FILLER_25_167
*1238 FILLER_25_169
*1239 FILLER_25_181
*1240 FILLER_25_189
*1241 FILLER_25_196
*1242 FILLER_25_205
*1243 FILLER_25_213
*1244 FILLER_25_219
*1245 FILLER_25_22
*1246 FILLER_25_223
*1247 FILLER_25_225
*1248 FILLER_25_237
*1249 FILLER_25_249
*1250 FILLER_25_261
*1251 FILLER_25_273
*1252 FILLER_25_279
*1253 FILLER_25_281
*1254 FILLER_25_293
*1255 FILLER_25_3
*1256 FILLER_25_30
*1257 FILLER_25_52
*1258 FILLER_25_57
*1259 FILLER_25_81
*1260 FILLER_25_93
*1261 FILLER_26_105
*1262 FILLER_26_111
*1263 FILLER_26_119
*1264 FILLER_26_127
*1265 FILLER_26_133
*1266 FILLER_26_139
*1267 FILLER_26_14
*1268 FILLER_26_141
*1269 FILLER_26_151
*1270 FILLER_26_163
*1271 FILLER_26_175
*1272 FILLER_26_190
*1273 FILLER_26_197
*1274 FILLER_26_208
*1275 FILLER_26_220
*1276 FILLER_26_232
*1277 FILLER_26_244
*1278 FILLER_26_253
*1279 FILLER_26_26
*1280 FILLER_26_265
*1281 FILLER_26_277
*1282 FILLER_26_289
*1283 FILLER_26_29
*1284 FILLER_26_297
*1285 FILLER_26_3
*1286 FILLER_26_37
*1287 FILLER_26_41
*1288 FILLER_26_65
*1289 FILLER_26_77
*1290 FILLER_26_83
*1291 FILLER_26_85
*1292 FILLER_26_97
*1293 FILLER_27_102
*1294 FILLER_27_110
*1295 FILLER_27_113
*1296 FILLER_27_119
*1297 FILLER_27_129
*1298 FILLER_27_141
*1299 FILLER_27_147
*1300 FILLER_27_159
*1301 FILLER_27_167
*1302 FILLER_27_169
*1303 FILLER_27_179
*1304 FILLER_27_189
*1305 FILLER_27_201
*1306 FILLER_27_213
*1307 FILLER_27_221
*1308 FILLER_27_225
*1309 FILLER_27_230
*1310 FILLER_27_246
*1311 FILLER_27_258
*1312 FILLER_27_270
*1313 FILLER_27_278
*1314 FILLER_27_281
*1315 FILLER_27_293
*1316 FILLER_27_3
*1317 FILLER_27_36
*1318 FILLER_27_46
*1319 FILLER_27_53
*1320 FILLER_27_57
*1321 FILLER_27_65
*1322 FILLER_27_8
*1323 FILLER_27_82
*1324 FILLER_27_94
*1325 FILLER_28_103
*1326 FILLER_28_111
*1327 FILLER_28_121
*1328 FILLER_28_133
*1329 FILLER_28_139
*1330 FILLER_28_141
*1331 FILLER_28_149
*1332 FILLER_28_153
*1333 FILLER_28_165
*1334 FILLER_28_177
*1335 FILLER_28_189
*1336 FILLER_28_195
*1337 FILLER_28_197
*1338 FILLER_28_209
*1339 FILLER_28_21
*1340 FILLER_28_220
*1341 FILLER_28_232
*1342 FILLER_28_244
*1343 FILLER_28_253
*1344 FILLER_28_264
*1345 FILLER_28_27
*1346 FILLER_28_276
*1347 FILLER_28_288
*1348 FILLER_28_29
*1349 FILLER_28_296
*1350 FILLER_28_3
*1351 FILLER_28_44
*1352 FILLER_28_51
*1353 FILLER_28_63
*1354 FILLER_28_81
*1355 FILLER_28_85
*1356 FILLER_29_104
*1357 FILLER_29_110
*1358 FILLER_29_113
*1359 FILLER_29_120
*1360 FILLER_29_124
*1361 FILLER_29_133
*1362 FILLER_29_139
*1363 FILLER_29_14
*1364 FILLER_29_147
*1365 FILLER_29_155
*1366 FILLER_29_166
*1367 FILLER_29_169
*1368 FILLER_29_181
*1369 FILLER_29_189
*1370 FILLER_29_199
*1371 FILLER_29_210
*1372 FILLER_29_222
*1373 FILLER_29_225
*1374 FILLER_29_237
*1375 FILLER_29_249
*1376 FILLER_29_257
*1377 FILLER_29_264
*1378 FILLER_29_270
*1379 FILLER_29_276
*1380 FILLER_29_281
*1381 FILLER_29_293
*1382 FILLER_29_3
*1383 FILLER_29_34
*1384 FILLER_29_43
*1385 FILLER_29_54
*1386 FILLER_29_57
*1387 FILLER_29_63
*1388 FILLER_29_80
*1389 FILLER_29_92
*1390 FILLER_2_103
*1391 FILLER_2_114
*1392 FILLER_2_126
*1393 FILLER_2_138
*1394 FILLER_2_141
*1395 FILLER_2_147
*1396 FILLER_2_155
*1397 FILLER_2_162
*1398 FILLER_2_169
*1399 FILLER_2_181
*1400 FILLER_2_193
*1401 FILLER_2_197
*1402 FILLER_2_209
*1403 FILLER_2_221
*1404 FILLER_2_233
*1405 FILLER_2_245
*1406 FILLER_2_25
*1407 FILLER_2_251
*1408 FILLER_2_253
*1409 FILLER_2_265
*1410 FILLER_2_277
*1411 FILLER_2_289
*1412 FILLER_2_29
*1413 FILLER_2_297
*1414 FILLER_2_3
*1415 FILLER_2_41
*1416 FILLER_2_65
*1417 FILLER_2_7
*1418 FILLER_2_73
*1419 FILLER_2_82
*1420 FILLER_2_85
*1421 FILLER_30_105
*1422 FILLER_30_117
*1423 FILLER_30_128
*1424 FILLER_30_14
*1425 FILLER_30_141
*1426 FILLER_30_153
*1427 FILLER_30_165
*1428 FILLER_30_177
*1429 FILLER_30_186
*1430 FILLER_30_194
*1431 FILLER_30_197
*1432 FILLER_30_209
*1433 FILLER_30_215
*1434 FILLER_30_22
*1435 FILLER_30_222
*1436 FILLER_30_234
*1437 FILLER_30_244
*1438 FILLER_30_253
*1439 FILLER_30_258
*1440 FILLER_30_26
*1441 FILLER_30_270
*1442 FILLER_30_282
*1443 FILLER_30_29
*1444 FILLER_30_294
*1445 FILLER_30_298
*1446 FILLER_30_3
*1447 FILLER_30_36
*1448 FILLER_30_45
*1449 FILLER_30_58
*1450 FILLER_30_70
*1451 FILLER_30_82
*1452 FILLER_30_85
*1453 FILLER_30_90
*1454 FILLER_30_98
*1455 FILLER_31_106
*1456 FILLER_31_113
*1457 FILLER_31_121
*1458 FILLER_31_125
*1459 FILLER_31_133
*1460 FILLER_31_139
*1461 FILLER_31_148
*1462 FILLER_31_160
*1463 FILLER_31_169
*1464 FILLER_31_181
*1465 FILLER_31_193
*1466 FILLER_31_200
*1467 FILLER_31_212
*1468 FILLER_31_22
*1469 FILLER_31_225
*1470 FILLER_31_237
*1471 FILLER_31_243
*1472 FILLER_31_265
*1473 FILLER_31_278
*1474 FILLER_31_281
*1475 FILLER_31_293
*1476 FILLER_31_3
*1477 FILLER_31_32
*1478 FILLER_31_44
*1479 FILLER_31_51
*1480 FILLER_31_55
*1481 FILLER_31_57
*1482 FILLER_31_69
*1483 FILLER_31_73
*1484 FILLER_31_80
*1485 FILLER_31_92
*1486 FILLER_32_103
*1487 FILLER_32_115
*1488 FILLER_32_12
*1489 FILLER_32_127
*1490 FILLER_32_139
*1491 FILLER_32_141
*1492 FILLER_32_153
*1493 FILLER_32_159
*1494 FILLER_32_168
*1495 FILLER_32_180
*1496 FILLER_32_192
*1497 FILLER_32_197
*1498 FILLER_32_205
*1499 FILLER_32_21
*1500 FILLER_32_213
*1501 FILLER_32_226
*1502 FILLER_32_238
*1503 FILLER_32_244
*1504 FILLER_32_250
*1505 FILLER_32_253
*1506 FILLER_32_265
*1507 FILLER_32_27
*1508 FILLER_32_277
*1509 FILLER_32_289
*1510 FILLER_32_29
*1511 FILLER_32_297
*1512 FILLER_32_3
*1513 FILLER_32_37
*1514 FILLER_32_50
*1515 FILLER_32_56
*1516 FILLER_32_63
*1517 FILLER_32_73
*1518 FILLER_32_80
*1519 FILLER_32_85
*1520 FILLER_32_96
*1521 FILLER_33_11
*1522 FILLER_33_110
*1523 FILLER_33_113
*1524 FILLER_33_123
*1525 FILLER_33_131
*1526 FILLER_33_141
*1527 FILLER_33_152
*1528 FILLER_33_164
*1529 FILLER_33_169
*1530 FILLER_33_186
*1531 FILLER_33_195
*1532 FILLER_33_209
*1533 FILLER_33_21
*1534 FILLER_33_218
*1535 FILLER_33_225
*1536 FILLER_33_233
*1537 FILLER_33_244
*1538 FILLER_33_256
*1539 FILLER_33_267
*1540 FILLER_33_279
*1541 FILLER_33_281
*1542 FILLER_33_293
*1543 FILLER_33_3
*1544 FILLER_33_34
*1545 FILLER_33_54
*1546 FILLER_33_57
*1547 FILLER_33_66
*1548 FILLER_33_74
*1549 FILLER_33_82
*1550 FILLER_33_93
*1551 FILLER_34_106
*1552 FILLER_34_118
*1553 FILLER_34_132
*1554 FILLER_34_141
*1555 FILLER_34_153
*1556 FILLER_34_161
*1557 FILLER_34_169
*1558 FILLER_34_181
*1559 FILLER_34_193
*1560 FILLER_34_197
*1561 FILLER_34_204
*1562 FILLER_34_216
*1563 FILLER_34_22
*1564 FILLER_34_228
*1565 FILLER_34_240
*1566 FILLER_34_253
*1567 FILLER_34_26
*1568 FILLER_34_264
*1569 FILLER_34_276
*1570 FILLER_34_288
*1571 FILLER_34_29
*1572 FILLER_34_296
*1573 FILLER_34_3
*1574 FILLER_34_41
*1575 FILLER_34_47
*1576 FILLER_34_52
*1577 FILLER_34_56
*1578 FILLER_34_63
*1579 FILLER_34_75
*1580 FILLER_34_80
*1581 FILLER_34_85
*1582 FILLER_34_95
*1583 FILLER_35_104
*1584 FILLER_35_113
*1585 FILLER_35_125
*1586 FILLER_35_134
*1587 FILLER_35_14
*1588 FILLER_35_146
*1589 FILLER_35_158
*1590 FILLER_35_166
*1591 FILLER_35_169
*1592 FILLER_35_179
*1593 FILLER_35_187
*1594 FILLER_35_192
*1595 FILLER_35_205
*1596 FILLER_35_217
*1597 FILLER_35_223
*1598 FILLER_35_225
*1599 FILLER_35_237
*1600 FILLER_35_249
*1601 FILLER_35_261
*1602 FILLER_35_273
*1603 FILLER_35_279
*1604 FILLER_35_281
*1605 FILLER_35_293
*1606 FILLER_35_3
*1607 FILLER_35_35
*1608 FILLER_35_45
*1609 FILLER_35_52
*1610 FILLER_35_57
*1611 FILLER_35_67
*1612 FILLER_35_75
*1613 FILLER_35_82
*1614 FILLER_35_9
*1615 FILLER_35_93
*1616 FILLER_35_99
*1617 FILLER_36_101
*1618 FILLER_36_11
*1619 FILLER_36_111
*1620 FILLER_36_123
*1621 FILLER_36_136
*1622 FILLER_36_141
*1623 FILLER_36_148
*1624 FILLER_36_156
*1625 FILLER_36_167
*1626 FILLER_36_175
*1627 FILLER_36_18
*1628 FILLER_36_180
*1629 FILLER_36_192
*1630 FILLER_36_197
*1631 FILLER_36_210
*1632 FILLER_36_219
*1633 FILLER_36_231
*1634 FILLER_36_243
*1635 FILLER_36_251
*1636 FILLER_36_253
*1637 FILLER_36_26
*1638 FILLER_36_265
*1639 FILLER_36_277
*1640 FILLER_36_289
*1641 FILLER_36_29
*1642 FILLER_36_297
*1643 FILLER_36_3
*1644 FILLER_36_41
*1645 FILLER_36_49
*1646 FILLER_36_57
*1647 FILLER_36_64
*1648 FILLER_36_71
*1649 FILLER_36_77
*1650 FILLER_36_82
*1651 FILLER_36_85
*1652 FILLER_36_93
*1653 FILLER_37_105
*1654 FILLER_37_11
*1655 FILLER_37_111
*1656 FILLER_37_113
*1657 FILLER_37_123
*1658 FILLER_37_135
*1659 FILLER_37_141
*1660 FILLER_37_151
*1661 FILLER_37_157
*1662 FILLER_37_166
*1663 FILLER_37_169
*1664 FILLER_37_18
*1665 FILLER_37_181
*1666 FILLER_37_187
*1667 FILLER_37_196
*1668 FILLER_37_208
*1669 FILLER_37_214
*1670 FILLER_37_222
*1671 FILLER_37_225
*1672 FILLER_37_237
*1673 FILLER_37_241
*1674 FILLER_37_26
*1675 FILLER_37_263
*1676 FILLER_37_275
*1677 FILLER_37_279
*1678 FILLER_37_281
*1679 FILLER_37_293
*1680 FILLER_37_3
*1681 FILLER_37_32
*1682 FILLER_37_41
*1683 FILLER_37_54
*1684 FILLER_37_57
*1685 FILLER_37_67
*1686 FILLER_37_75
*1687 FILLER_37_85
*1688 FILLER_37_95
*1689 FILLER_38_10
*1690 FILLER_38_105
*1691 FILLER_38_117
*1692 FILLER_38_131
*1693 FILLER_38_139
*1694 FILLER_38_141
*1695 FILLER_38_152
*1696 FILLER_38_164
*1697 FILLER_38_176
*1698 FILLER_38_188
*1699 FILLER_38_197
*1700 FILLER_38_204
*1701 FILLER_38_216
*1702 FILLER_38_22
*1703 FILLER_38_224
*1704 FILLER_38_236
*1705 FILLER_38_248
*1706 FILLER_38_253
*1707 FILLER_38_265
*1708 FILLER_38_277
*1709 FILLER_38_289
*1710 FILLER_38_29
*1711 FILLER_38_297
*1712 FILLER_38_3
*1713 FILLER_38_36
*1714 FILLER_38_44
*1715 FILLER_38_55
*1716 FILLER_38_66
*1717 FILLER_38_74
*1718 FILLER_38_81
*1719 FILLER_38_85
*1720 FILLER_38_93
*1721 FILLER_38_97
*1722 FILLER_39_110
*1723 FILLER_39_113
*1724 FILLER_39_12
*1725 FILLER_39_120
*1726 FILLER_39_126
*1727 FILLER_39_136
*1728 FILLER_39_145
*1729 FILLER_39_165
*1730 FILLER_39_169
*1731 FILLER_39_180
*1732 FILLER_39_192