*SPEF "ieee 1481-1999"
*DESIGN "wren6991_whisk_tt2_io_wrapper"
*DATE "11:11:11 Fri 11 11, 1111"
*VENDOR "OpenRCX"
*PROGRAM "Parallel Extraction"
*VERSION "1.0"
*DESIGN_FLOW "NAME_SCOPE LOCAL" "PIN_CAP NONE"
*DIVIDER /
*DELIMITER :
*BUS_DELIMITER []
*T_UNIT 1 NS
*C_UNIT 1 PF
*R_UNIT 1 OHM
*L_UNIT 1 HENRY

*NAME_MAP
*1 io_in[0]
*2 io_in[1]
*3 io_in[2]
*4 io_in[3]
*5 io_in[4]
*6 io_in[5]
*7 io_in[6]
*8 io_in[7]
*9 io_out[0]
*10 io_out[1]
*11 io_out[2]
*12 io_out[3]
*13 io_out[4]
*14 io_out[5]
*15 io_out[6]
*16 net12
*19 _000_
*20 _001_
*21 _002_
*22 _003_
*23 _012_
*24 _013_
*25 _014_
*26 _015_
*27 _016_
*28 _017_
*29 _018_
*30 _019_
*31 _020_
*32 _021_
*33 _022_
*34 _023_
*35 _024_
*36 _025_
*37 _026_
*38 _027_
*39 _028_
*40 _029_
*41 _030_
*42 _031_
*43 _032_
*44 _033_
*45 _034_
*46 _035_
*47 _036_
*48 _037_
*49 _038_
*50 _039_
*51 _040_
*52 _041_
*53 _042_
*54 _043_
*55 _044_
*56 _045_
*57 _046_
*58 _047_
*59 _048_
*60 _049_
*61 _050_
*62 _051_
*63 _052_
*64 _053_
*65 _054_
*66 _055_
*67 _056_
*68 _057_
*69 _058_
*70 _059_
*71 _060_
*72 _061_
*73 _062_
*74 _063_
*75 _064_
*76 _065_
*77 _066_
*78 _067_
*79 _068_
*80 _069_
*81 _070_
*82 _071_
*83 _072_
*84 _073_
*85 _074_
*86 _075_
*87 _076_
*88 _077_
*89 _078_
*90 _079_
*91 _080_
*92 _081_
*93 _082_
*94 _083_
*95 _084_
*96 _085_
*97 _086_
*98 _087_
*99 _088_
*100 _089_
*101 _090_
*102 _091_
*103 _092_
*104 _093_
*105 _094_
*106 _095_
*107 _096_
*108 _097_
*109 _098_
*110 _099_
*111 _100_
*112 _101_
*113 _102_
*114 _103_
*115 _104_
*116 _105_
*117 _106_
*118 _107_
*119 _108_
*120 _109_
*121 _110_
*122 _111_
*123 _112_
*124 _113_
*125 _114_
*126 _115_
*127 _116_
*128 _117_
*129 _118_
*130 _119_
*131 _120_
*132 _121_
*133 _122_
*134 _123_
*135 _124_
*136 _125_
*137 _126_
*138 _127_
*139 _128_
*140 _129_
*141 _130_
*142 _131_
*143 _132_
*144 _133_
*145 _134_
*146 _135_
*147 _136_
*148 _137_
*149 _138_
*150 _139_
*151 _140_
*152 _141_
*153 _142_
*154 _143_
*155 _144_
*156 _145_
*157 _146_
*158 _147_
*159 _148_
*160 _149_
*161 _150_
*162 _151_
*163 _152_
*164 _153_
*165 _154_
*166 _155_
*167 _156_
*168 _157_
*169 _158_
*170 _159_
*171 _160_
*172 _161_
*173 _162_
*174 _163_
*175 _164_
*176 _165_
*177 _166_
*178 _167_
*179 _168_
*180 _169_
*181 _170_
*182 _171_
*183 _172_
*184 _173_
*185 _174_
*186 _175_
*187 _176_
*188 _177_
*189 _178_
*190 _179_
*191 _180_
*192 _181_
*193 _182_
*194 _183_
*195 _184_
*196 _185_
*197 _186_
*198 _187_
*199 _188_
*200 _189_
*201 _190_
*202 _191_
*203 _192_
*204 _193_
*205 _194_
*206 _195_
*207 _196_
*208 _197_
*209 _198_
*210 _199_
*211 _200_
*212 _201_
*213 _202_
*214 _203_
*215 _204_
*216 _205_
*217 _206_
*218 _207_
*219 _208_
*220 _209_
*221 _210_
*222 _211_
*223 _212_
*224 _213_
*225 _214_
*226 _215_
*227 _216_
*228 _217_
*229 _218_
*230 _219_
*231 _220_
*232 _221_
*233 _222_
*234 _223_
*235 _224_
*236 _225_
*237 _226_
*238 _227_
*239 _228_
*240 _229_
*241 _230_
*242 _231_
*243 _232_
*244 _233_
*245 _234_
*246 _235_
*247 _236_
*248 _237_
*249 _238_
*250 _239_
*251 _240_
*252 _241_
*253 _242_
*254 _243_
*255 _244_
*256 _245_
*257 _246_
*258 _247_
*259 _248_
*260 _249_
*261 _250_
*262 _251_
*263 _252_
*264 _253_
*265 _254_
*266 _255_
*267 _256_
*268 _257_
*269 _258_
*270 _259_
*271 _260_
*272 _261_
*273 _262_
*274 clknet_0__213_
*275 clknet_0_io_in[0]
*276 clknet_1_0__leaf__213_
*277 clknet_1_1__leaf__213_
*278 clknet_4_0_0_io_in[0]
*279 clknet_4_10_0_io_in[0]
*280 clknet_4_11_0_io_in[0]
*281 clknet_4_12_0_io_in[0]
*282 clknet_4_13_0_io_in[0]
*283 clknet_4_14_0_io_in[0]
*284 clknet_4_15_0_io_in[0]
*285 clknet_4_1_0_io_in[0]
*286 clknet_4_2_0_io_in[0]
*287 clknet_4_3_0_io_in[0]
*288 clknet_4_4_0_io_in[0]
*289 clknet_4_5_0_io_in[0]
*290 clknet_4_6_0_io_in[0]
*291 clknet_4_7_0_io_in[0]
*292 clknet_4_8_0_io_in[0]
*293 clknet_4_9_0_io_in[0]
*294 net1
*295 net10
*296 net100
*297 net101
*298 net102
*299 net103
*300 net104
*301 net105
*302 net106
*303 net107
*304 net108
*305 net109
*306 net11
*307 net110
*308 net111
*309 net112
*310 net113
*311 net114
*312 net115
*313 net116
*314 net117
*315 net118
*316 net119
*317 net120
*318 net121
*319 net122
*320 net123
*321 net124
*322 net125
*323 net126
*324 net127
*325 net128
*326 net129
*327 net13
*328 net130
*329 net131
*330 net132
*331 net133
*332 net14
*333 net15
*334 net16
*335 net17
*336 net18
*337 net19
*338 net2
*339 net20
*340 net21
*341 net22
*342 net23
*343 net24
*344 net25
*345 net26
*346 net27
*347 net28
*348 net29
*349 net3
*350 net30
*351 net31
*352 net32
*353 net33
*354 net34
*355 net35
*356 net36
*357 net37
*358 net38
*359 net39
*360 net4
*361 net40
*362 net41
*363 net42
*364 net43
*365 net44
*366 net45
*367 net46
*368 net47
*369 net48
*370 net49
*371 net5
*372 net50
*373 net51
*374 net52
*375 net53
*376 net54
*377 net55
*378 net56
*379 net57
*380 net58
*381 net59
*382 net6
*383 net60
*384 net61
*385 net62
*386 net63
*387 net64
*388 net65
*389 net66
*390 net67
*391 net68
*392 net69
*393 net7
*394 net70
*395 net71
*396 net72
*397 net73
*398 net74
*399 net75
*400 net76
*401 net77
*402 net78
*403 net79
*404 net8
*405 net80
*406 net81
*407 net82
*408 net83
*409 net84
*410 net85
*411 net86
*412 net87
*413 net88
*414 net89
*415 net9
*416 net90
*417 net91
*418 net92
*419 net93
*420 net94
*421 net95
*422 net96
*423 net97
*424 net98
*425 net99
*426 top_u\.cpu\.alu_ci
*427 top_u\.cpu\.alu_co
*428 top_u\.cpu\.ar_dl
*429 top_u\.cpu\.ar_dr
*430 top_u\.cpu\.ar_l_nr
*431 top_u\.cpu\.ar_ql_next
*432 top_u\.cpu\.ar_qr
*433 top_u\.cpu\.ar_u\.shift_stage\[10\]\.flop_u\.q
*434 top_u\.cpu\.ar_u\.shift_stage\[11\]\.flop_u\.q
*435 top_u\.cpu\.ar_u\.shift_stage\[12\]\.flop_u\.q
*436 top_u\.cpu\.ar_u\.shift_stage\[13\]\.flop_u\.q
*437 top_u\.cpu\.ar_u\.shift_stage\[14\]\.flop_u\.q
*438 top_u\.cpu\.ar_u\.shift_stage\[2\]\.flop_u\.q
*439 top_u\.cpu\.ar_u\.shift_stage\[3\]\.flop_u\.q
*440 top_u\.cpu\.ar_u\.shift_stage\[4\]\.flop_u\.q
*441 top_u\.cpu\.ar_u\.shift_stage\[5\]\.flop_u\.q
*442 top_u\.cpu\.ar_u\.shift_stage\[6\]\.flop_u\.q
*443 top_u\.cpu\.ar_u\.shift_stage\[7\]\.flop_u\.q
*444 top_u\.cpu\.ar_u\.shift_stage\[8\]\.flop_u\.q
*445 top_u\.cpu\.ar_u\.shift_stage\[9\]\.flop_u\.q
*446 top_u\.cpu\.bit_ctr\[0\]
*447 top_u\.cpu\.bit_ctr\[1\]
*448 top_u\.cpu\.bit_ctr\[2\]
*449 top_u\.cpu\.bit_ctr\[3\]
*450 top_u\.cpu\.flag_c
*451 top_u\.cpu\.flag_n
*452 top_u\.cpu\.flag_z
*453 top_u\.cpu\.instr\[0\]
*454 top_u\.cpu\.instr\[10\]
*455 top_u\.cpu\.instr\[11\]
*456 top_u\.cpu\.instr\[12\]
*457 top_u\.cpu\.instr\[13\]
*458 top_u\.cpu\.instr\[14\]
*459 top_u\.cpu\.instr\[15\]
*460 top_u\.cpu\.instr\[1\]
*461 top_u\.cpu\.instr\[2\]
*462 top_u\.cpu\.instr\[3\]
*463 top_u\.cpu\.instr\[4\]
*464 top_u\.cpu\.instr\[5\]
*465 top_u\.cpu\.instr\[6\]
*466 top_u\.cpu\.instr\[7\]
*467 top_u\.cpu\.instr\[8\]
*468 top_u\.cpu\.instr\[9\]
*469 top_u\.cpu\.instr_cond_true
*470 top_u\.cpu\.instr_has_imm_operand
*471 top_u\.cpu\.ioport_latch_i_next
*472 top_u\.cpu\.ioport_latch_o_next
*473 top_u\.cpu\.ioport_sck_en_next
*474 top_u\.cpu\.ioport_sdo_next
*475 top_u\.cpu\.mem_csn_next
*476 top_u\.cpu\.mem_sck_en_next
*477 top_u\.cpu\.mem_sdo_next
*478 top_u\.cpu\.pc_ci
*479 top_u\.cpu\.pc_co
*480 top_u\.cpu\.pc_dl
*481 top_u\.cpu\.pc_q_all\[0\]
*482 top_u\.cpu\.pc_q_all\[10\]
*483 top_u\.cpu\.pc_q_all\[11\]
*484 top_u\.cpu\.pc_q_all\[12\]
*485 top_u\.cpu\.pc_q_all\[13\]
*486 top_u\.cpu\.pc_q_all\[14\]
*487 top_u\.cpu\.pc_q_all\[15\]
*488 top_u\.cpu\.pc_q_all\[1\]
*489 top_u\.cpu\.pc_q_all\[2\]
*490 top_u\.cpu\.pc_q_all\[3\]
*491 top_u\.cpu\.pc_q_all\[4\]
*492 top_u\.cpu\.pc_q_all\[5\]
*493 top_u\.cpu\.pc_q_all\[6\]
*494 top_u\.cpu\.pc_q_all\[7\]
*495 top_u\.cpu\.pc_q_all\[8\]
*496 top_u\.cpu\.pc_q_all\[9\]
*497 top_u\.cpu\.regfile_u\.loop_gprs\[0\]\.gpr_shifter\.qr
*498 top_u\.cpu\.regfile_u\.loop_gprs\[0\]\.gpr_shifter\.reg_u\.dl
*499 top_u\.cpu\.regfile_u\.loop_gprs\[0\]\.gpr_shifter\.reg_u\.q_all\[10\]
*500 top_u\.cpu\.regfile_u\.loop_gprs\[0\]\.gpr_shifter\.reg_u\.q_all\[11\]
*501 top_u\.cpu\.regfile_u\.loop_gprs\[0\]\.gpr_shifter\.reg_u\.q_all\[12\]
*502 top_u\.cpu\.regfile_u\.loop_gprs\[0\]\.gpr_shifter\.reg_u\.q_all\[13\]
*503 top_u\.cpu\.regfile_u\.loop_gprs\[0\]\.gpr_shifter\.reg_u\.q_all\[14\]
*504 top_u\.cpu\.regfile_u\.loop_gprs\[0\]\.gpr_shifter\.reg_u\.q_all\[15\]
*505 top_u\.cpu\.regfile_u\.loop_gprs\[0\]\.gpr_shifter\.reg_u\.q_all\[1\]
*506 top_u\.cpu\.regfile_u\.loop_gprs\[0\]\.gpr_shifter\.reg_u\.q_all\[2\]
*507 top_u\.cpu\.regfile_u\.loop_gprs\[0\]\.gpr_shifter\.reg_u\.q_all\[3\]
*508 top_u\.cpu\.regfile_u\.loop_gprs\[0\]\.gpr_shifter\.reg_u\.q_all\[4\]
*509 top_u\.cpu\.regfile_u\.loop_gprs\[0\]\.gpr_shifter\.reg_u\.q_all\[5\]
*510 top_u\.cpu\.regfile_u\.loop_gprs\[0\]\.gpr_shifter\.reg_u\.q_all\[6\]
*511 top_u\.cpu\.regfile_u\.loop_gprs\[0\]\.gpr_shifter\.reg_u\.q_all\[7\]
*512 top_u\.cpu\.regfile_u\.loop_gprs\[0\]\.gpr_shifter\.reg_u\.q_all\[8\]
*513 top_u\.cpu\.regfile_u\.loop_gprs\[0\]\.gpr_shifter\.reg_u\.q_all\[9\]
*514 top_u\.cpu\.regfile_u\.loop_gprs\[1\]\.gpr_shifter\.qr
*515 top_u\.cpu\.regfile_u\.loop_gprs\[1\]\.gpr_shifter\.reg_u\.dl
*516 top_u\.cpu\.regfile_u\.loop_gprs\[1\]\.gpr_shifter\.reg_u\.q_all\[10\]
*517 top_u\.cpu\.regfile_u\.loop_gprs\[1\]\.gpr_shifter\.reg_u\.q_all\[11\]
*518 top_u\.cpu\.regfile_u\.loop_gprs\[1\]\.gpr_shifter\.reg_u\.q_all\[12\]
*519 top_u\.cpu\.regfile_u\.loop_gprs\[1\]\.gpr_shifter\.reg_u\.q_all\[13\]
*520 top_u\.cpu\.regfile_u\.loop_gprs\[1\]\.gpr_shifter\.reg_u\.q_all\[14\]
*521 top_u\.cpu\.regfile_u\.loop_gprs\[1\]\.gpr_shifter\.reg_u\.q_all\[15\]
*522 top_u\.cpu\.regfile_u\.loop_gprs\[1\]\.gpr_shifter\.reg_u\.q_all\[1\]
*523 top_u\.cpu\.regfile_u\.loop_gprs\[1\]\.gpr_shifter\.reg_u\.q_all\[2\]
*524 top_u\.cpu\.regfile_u\.loop_gprs\[1\]\.gpr_shifter\.reg_u\.q_all\[3\]
*525 top_u\.cpu\.regfile_u\.loop_gprs\[1\]\.gpr_shifter\.reg_u\.q_all\[4\]
*526 top_u\.cpu\.regfile_u\.loop_gprs\[1\]\.gpr_shifter\.reg_u\.q_all\[5\]
*527 top_u\.cpu\.regfile_u\.loop_gprs\[1\]\.gpr_shifter\.reg_u\.q_all\[6\]
*528 top_u\.cpu\.regfile_u\.loop_gprs\[1\]\.gpr_shifter\.reg_u\.q_all\[7\]
*529 top_u\.cpu\.regfile_u\.loop_gprs\[1\]\.gpr_shifter\.reg_u\.q_all\[8\]
*530 top_u\.cpu\.regfile_u\.loop_gprs\[1\]\.gpr_shifter\.reg_u\.q_all\[9\]
*531 top_u\.cpu\.regfile_u\.loop_gprs\[2\]\.gpr_shifter\.qr
*532 top_u\.cpu\.regfile_u\.loop_gprs\[2\]\.gpr_shifter\.reg_u\.dl
*533 top_u\.cpu\.regfile_u\.loop_gprs\[2\]\.gpr_shifter\.reg_u\.q_all\[10\]
*534 top_u\.cpu\.regfile_u\.loop_gprs\[2\]\.gpr_shifter\.reg_u\.q_all\[11\]
*535 top_u\.cpu\.regfile_u\.loop_gprs\[2\]\.gpr_shifter\.reg_u\.q_all\[12\]
*536 top_u\.cpu\.regfile_u\.loop_gprs\[2\]\.gpr_shifter\.reg_u\.q_all\[13\]
*537 top_u\.cpu\.regfile_u\.loop_gprs\[2\]\.gpr_shifter\.reg_u\.q_all\[14\]
*538 top_u\.cpu\.regfile_u\.loop_gprs\[2\]\.gpr_shifter\.reg_u\.q_all\[15\]
*539 top_u\.cpu\.regfile_u\.loop_gprs\[2\]\.gpr_shifter\.reg_u\.q_all\[1\]
*540 top_u\.cpu\.regfile_u\.loop_gprs\[2\]\.gpr_shifter\.reg_u\.q_all\[2\]
*541 top_u\.cpu\.regfile_u\.loop_gprs\[2\]\.gpr_shifter\.reg_u\.q_all\[3\]
*542 top_u\.cpu\.regfile_u\.loop_gprs\[2\]\.gpr_shifter\.reg_u\.q_all\[4\]
*543 top_u\.cpu\.regfile_u\.loop_gprs\[2\]\.gpr_shifter\.reg_u\.q_all\[5\]
*544 top_u\.cpu\.regfile_u\.loop_gprs\[2\]\.gpr_shifter\.reg_u\.q_all\[6\]
*545 top_u\.cpu\.regfile_u\.loop_gprs\[2\]\.gpr_shifter\.reg_u\.q_all\[7\]
*546 top_u\.cpu\.regfile_u\.loop_gprs\[2\]\.gpr_shifter\.reg_u\.q_all\[8\]
*547 top_u\.cpu\.regfile_u\.loop_gprs\[2\]\.gpr_shifter\.reg_u\.q_all\[9\]
*548 top_u\.cpu\.regfile_u\.loop_gprs\[3\]\.gpr_shifter\.qr
*549 top_u\.cpu\.regfile_u\.loop_gprs\[3\]\.gpr_shifter\.reg_u\.dl
*550 top_u\.cpu\.regfile_u\.loop_gprs\[3\]\.gpr_shifter\.reg_u\.q_all\[10\]
*551 top_u\.cpu\.regfile_u\.loop_gprs\[3\]\.gpr_shifter\.reg_u\.q_all\[11\]
*552 top_u\.cpu\.regfile_u\.loop_gprs\[3\]\.gpr_shifter\.reg_u\.q_all\[12\]
*553 top_u\.cpu\.regfile_u\.loop_gprs\[3\]\.gpr_shifter\.reg_u\.q_all\[13\]
*554 top_u\.cpu\.regfile_u\.loop_gprs\[3\]\.gpr_shifter\.reg_u\.q_all\[14\]
*555 top_u\.cpu\.regfile_u\.loop_gprs\[3\]\.gpr_shifter\.reg_u\.q_all\[15\]
*556 top_u\.cpu\.regfile_u\.loop_gprs\[3\]\.gpr_shifter\.reg_u\.q_all\[1\]
*557 top_u\.cpu\.regfile_u\.loop_gprs\[3\]\.gpr_shifter\.reg_u\.q_all\[2\]
*558 top_u\.cpu\.regfile_u\.loop_gprs\[3\]\.gpr_shifter\.reg_u\.q_all\[3\]
*559 top_u\.cpu\.regfile_u\.loop_gprs\[3\]\.gpr_shifter\.reg_u\.q_all\[4\]
*560 top_u\.cpu\.regfile_u\.loop_gprs\[3\]\.gpr_shifter\.reg_u\.q_all\[5\]
*561 top_u\.cpu\.regfile_u\.loop_gprs\[3\]\.gpr_shifter\.reg_u\.q_all\[6\]
*562 top_u\.cpu\.regfile_u\.loop_gprs\[3\]\.gpr_shifter\.reg_u\.q_all\[7\]
*563 top_u\.cpu\.regfile_u\.loop_gprs\[3\]\.gpr_shifter\.reg_u\.q_all\[8\]
*564 top_u\.cpu\.regfile_u\.loop_gprs\[3\]\.gpr_shifter\.reg_u\.q_all\[9\]
*565 top_u\.cpu\.regfile_u\.loop_gprs\[4\]\.gpr_shifter\.qr
*566 top_u\.cpu\.regfile_u\.loop_gprs\[4\]\.gpr_shifter\.reg_u\.dl
*567 top_u\.cpu\.regfile_u\.loop_gprs\[4\]\.gpr_shifter\.reg_u\.q_all\[10\]
*568 top_u\.cpu\.regfile_u\.loop_gprs\[4\]\.gpr_shifter\.reg_u\.q_all\[11\]
*569 top_u\.cpu\.regfile_u\.loop_gprs\[4\]\.gpr_shifter\.reg_u\.q_all\[12\]
*570 top_u\.cpu\.regfile_u\.loop_gprs\[4\]\.gpr_shifter\.reg_u\.q_all\[13\]
*571 top_u\.cpu\.regfile_u\.loop_gprs\[4\]\.gpr_shifter\.reg_u\.q_all\[14\]
*572 top_u\.cpu\.regfile_u\.loop_gprs\[4\]\.gpr_shifter\.reg_u\.q_all\[15\]
*573 top_u\.cpu\.regfile_u\.loop_gprs\[4\]\.gpr_shifter\.reg_u\.q_all\[1\]
*574 top_u\.cpu\.regfile_u\.loop_gprs\[4\]\.gpr_shifter\.reg_u\.q_all\[2\]
*575 top_u\.cpu\.regfile_u\.loop_gprs\[4\]\.gpr_shifter\.reg_u\.q_all\[3\]
*576 top_u\.cpu\.regfile_u\.loop_gprs\[4\]\.gpr_shifter\.reg_u\.q_all\[4\]
*577 top_u\.cpu\.regfile_u\.loop_gprs\[4\]\.gpr_shifter\.reg_u\.q_all\[5\]
*578 top_u\.cpu\.regfile_u\.loop_gprs\[4\]\.gpr_shifter\.reg_u\.q_all\[6\]
*579 top_u\.cpu\.regfile_u\.loop_gprs\[4\]\.gpr_shifter\.reg_u\.q_all\[7\]
*580 top_u\.cpu\.regfile_u\.loop_gprs\[4\]\.gpr_shifter\.reg_u\.q_all\[8\]
*581 top_u\.cpu\.regfile_u\.loop_gprs\[4\]\.gpr_shifter\.reg_u\.q_all\[9\]
*582 top_u\.cpu\.regfile_u\.loop_gprs\[5\]\.gpr_shifter\.qr
*583 top_u\.cpu\.regfile_u\.loop_gprs\[5\]\.gpr_shifter\.reg_u\.dl
*584 top_u\.cpu\.regfile_u\.loop_gprs\[5\]\.gpr_shifter\.reg_u\.q_all\[10\]
*585 top_u\.cpu\.regfile_u\.loop_gprs\[5\]\.gpr_shifter\.reg_u\.q_all\[11\]
*586 top_u\.cpu\.regfile_u\.loop_gprs\[5\]\.gpr_shifter\.reg_u\.q_all\[12\]
*587 top_u\.cpu\.regfile_u\.loop_gprs\[5\]\.gpr_shifter\.reg_u\.q_all\[13\]
*588 top_u\.cpu\.regfile_u\.loop_gprs\[5\]\.gpr_shifter\.reg_u\.q_all\[14\]
*589 top_u\.cpu\.regfile_u\.loop_gprs\[5\]\.gpr_shifter\.reg_u\.q_all\[15\]
*590 top_u\.cpu\.regfile_u\.loop_gprs\[5\]\.gpr_shifter\.reg_u\.q_all\[1\]
*591 top_u\.cpu\.regfile_u\.loop_gprs\[5\]\.gpr_shifter\.reg_u\.q_all\[2\]
*592 top_u\.cpu\.regfile_u\.loop_gprs\[5\]\.gpr_shifter\.reg_u\.q_all\[3\]
*593 top_u\.cpu\.regfile_u\.loop_gprs\[5\]\.gpr_shifter\.reg_u\.q_all\[4\]
*594 top_u\.cpu\.regfile_u\.loop_gprs\[5\]\.gpr_shifter\.reg_u\.q_all\[5\]
*595 top_u\.cpu\.regfile_u\.loop_gprs\[5\]\.gpr_shifter\.reg_u\.q_all\[6\]
*596 top_u\.cpu\.regfile_u\.loop_gprs\[5\]\.gpr_shifter\.reg_u\.q_all\[7\]
*597 top_u\.cpu\.regfile_u\.loop_gprs\[5\]\.gpr_shifter\.reg_u\.q_all\[8\]
*598 top_u\.cpu\.regfile_u\.loop_gprs\[5\]\.gpr_shifter\.reg_u\.q_all\[9\]
*599 top_u\.cpu\.rst_n
*600 top_u\.cpu\.state\[0\]
*601 top_u\.cpu\.state\[1\]
*602 top_u\.cpu\.state\[2\]
*603 top_u\.io_ioport_latch_i
*604 top_u\.io_ioport_latch_o
*605 top_u\.io_ioport_sck
*606 top_u\.io_ioport_sdo
*607 top_u\.io_mem_csn
*608 top_u\.io_mem_sck
*609 top_u\.io_mem_sdo
*610 top_u\.io_serdes_u\.latch_i_neg
*611 top_u\.io_serdes_u\.latch_i_pos
*612 top_u\.io_serdes_u\.latch_o_neg
*613 top_u\.io_serdes_u\.latch_o_pos
*614 top_u\.io_serdes_u\.sck_en_neg
*615 top_u\.io_serdes_u\.sck_en_pos
*616 top_u\.io_serdes_u\.sdo_neg
*617 top_u\.io_serdes_u\.sdo_pos
*618 top_u\.mem_serdes_u\.csn_neg_r
*619 top_u\.mem_serdes_u\.csn_pos_r
*620 top_u\.mem_serdes_u\.padin_sdi_delay
*621 top_u\.mem_serdes_u\.padin_sdi_delay_int\[0\]
*622 top_u\.mem_serdes_u\.padin_sdi_delay_int\[1\]
*623 top_u\.mem_serdes_u\.padin_sdi_delay_int\[2\]
*624 top_u\.mem_serdes_u\.sck_en_neg_r
*625 top_u\.mem_serdes_u\.sck_en_pos_r
*626 top_u\.mem_serdes_u\.sdi_latch
*627 top_u\.mem_serdes_u\.sdi_negedge
*628 top_u\.mem_serdes_u\.sdo_neg_r
*629 top_u\.mem_serdes_u\.sdo_pos_r
*630 top_u\.reset_sync\[0\]
*631 ANTENNA_1
*632 ANTENNA_2
*633 ANTENNA_3
*634 ANTENNA_4
*635 ANTENNA_5
*636 ANTENNA_6
*637 FILLER_0_108
*638 FILLER_0_113
*639 FILLER_0_118
*640 FILLER_0_138
*641 FILLER_0_14
*642 FILLER_0_141
*643 FILLER_0_147
*644 FILLER_0_164
*645 FILLER_0_169
*646 FILLER_0_185
*647 FILLER_0_192
*648 FILLER_0_197
*649 FILLER_0_207
*650 FILLER_0_214
*651 FILLER_0_222
*652 FILLER_0_225
*653 FILLER_0_237
*654 FILLER_0_249
*655 FILLER_0_253
*656 FILLER_0_26
*657 FILLER_0_265
*658 FILLER_0_277
*659 FILLER_0_281
*660 FILLER_0_29
*661 FILLER_0_293
*662 FILLER_0_3
*663 FILLER_0_33
*664 FILLER_0_42
*665 FILLER_0_54
*666 FILLER_0_57
*667 FILLER_0_81
*668 FILLER_0_85
*669 FILLER_0_91
*670 FILLER_10_100
*671 FILLER_10_120
*672 FILLER_10_128
*673 FILLER_10_138
*674 FILLER_10_141
*675 FILLER_10_145
*676 FILLER_10_162
*677 FILLER_10_174
*678 FILLER_10_180
*679 FILLER_10_189
*680 FILLER_10_195
*681 FILLER_10_197
*682 FILLER_10_219
*683 FILLER_10_239
*684 FILLER_10_246
*685 FILLER_10_253
*686 FILLER_10_26
*687 FILLER_10_263
*688 FILLER_10_275
*689 FILLER_10_287
*690 FILLER_10_29
*691 FILLER_10_3
*692 FILLER_10_38
*693 FILLER_10_59
*694 FILLER_10_79
*695 FILLER_10_83
*696 FILLER_10_85
*697 FILLER_10_9
*698 FILLER_10_91
*699 FILLER_11_100
*700 FILLER_11_104
*701 FILLER_11_110
*702 FILLER_11_113
*703 FILLER_11_124
*704 FILLER_11_137
*705 FILLER_11_145
*706 FILLER_11_165
*707 FILLER_11_169
*708 FILLER_11_187
*709 FILLER_11_207
*710 FILLER_11_219
*711 FILLER_11_223
*712 FILLER_11_225
*713 FILLER_11_235
*714 FILLER_11_24
*715 FILLER_11_247
*716 FILLER_11_254
*717 FILLER_11_261
*718 FILLER_11_273
*719 FILLER_11_279
*720 FILLER_11_281
*721 FILLER_11_293
*722 FILLER_11_3
*723 FILLER_11_47
*724 FILLER_11_54
*725 FILLER_11_57
*726 FILLER_11_7
*727 FILLER_11_70
*728 FILLER_11_79
*729 FILLER_11_83
*730 FILLER_12_102
*731 FILLER_12_109
*732 FILLER_12_122
*733 FILLER_12_128
*734 FILLER_12_138
*735 FILLER_12_141
*736 FILLER_12_151
*737 FILLER_12_162
*738 FILLER_12_174
*739 FILLER_12_194
*740 FILLER_12_197
*741 FILLER_12_21
*742 FILLER_12_215
*743 FILLER_12_235
*744 FILLER_12_247
*745 FILLER_12_251
*746 FILLER_12_253
*747 FILLER_12_258
*748 FILLER_12_27
*749 FILLER_12_270
*750 FILLER_12_282
*751 FILLER_12_29
*752 FILLER_12_294
*753 FILLER_12_298
*754 FILLER_12_3
*755 FILLER_12_44
*756 FILLER_12_57
*757 FILLER_12_67
*758 FILLER_12_80
*759 FILLER_12_85
*760 FILLER_13_10
*761 FILLER_13_110
*762 FILLER_13_113
*763 FILLER_13_129
*764 FILLER_13_140
*765 FILLER_13_148
*766 FILLER_13_166
*767 FILLER_13_169
*768 FILLER_13_173
*769 FILLER_13_185
*770 FILLER_13_205
*771 FILLER_13_220
*772 FILLER_13_225
*773 FILLER_13_243
*774 FILLER_13_255
*775 FILLER_13_267
*776 FILLER_13_279
*777 FILLER_13_281
*778 FILLER_13_293
*779 FILLER_13_3
*780 FILLER_13_30
*781 FILLER_13_42
*782 FILLER_13_54
*783 FILLER_13_57
*784 FILLER_13_67
*785 FILLER_13_82
*786 FILLER_13_90
*787 FILLER_14_100
*788 FILLER_14_111
*789 FILLER_14_119
*790 FILLER_14_130
*791 FILLER_14_138
*792 FILLER_14_141
*793 FILLER_14_147
*794 FILLER_14_157
*795 FILLER_14_167
*796 FILLER_14_173
*797 FILLER_14_190
*798 FILLER_14_197
*799 FILLER_14_215
*800 FILLER_14_235
*801 FILLER_14_24
*802 FILLER_14_247
*803 FILLER_14_251
*804 FILLER_14_253
*805 FILLER_14_265
*806 FILLER_14_277
*807 FILLER_14_289
*808 FILLER_14_29
*809 FILLER_14_297
*810 FILLER_14_3
*811 FILLER_14_40
*812 FILLER_14_52
*813 FILLER_14_65
*814 FILLER_14_7
*815 FILLER_14_76
*816 FILLER_14_85
*817 FILLER_14_92
*818 FILLER_15_100
*819 FILLER_15_107
*820 FILLER_15_111
*821 FILLER_15_113
*822 FILLER_15_117
*823 FILLER_15_126
*824 FILLER_15_137
*825 FILLER_15_153
*826 FILLER_15_16
*827 FILLER_15_166
*828 FILLER_15_169
*829 FILLER_15_177
*830 FILLER_15_189
*831 FILLER_15_201
*832 FILLER_15_213
*833 FILLER_15_220
*834 FILLER_15_225
*835 FILLER_15_243
*836 FILLER_15_255
*837 FILLER_15_262
*838 FILLER_15_274
*839 FILLER_15_281
*840 FILLER_15_293
*841 FILLER_15_3
*842 FILLER_15_38
*843 FILLER_15_51
*844 FILLER_15_55
*845 FILLER_15_57
*846 FILLER_15_7
*847 FILLER_15_71
*848 FILLER_15_81
*849 FILLER_15_87
*850 FILLER_15_96
*851 FILLER_16_110
*852 FILLER_16_126
*853 FILLER_16_138
*854 FILLER_16_141
*855 FILLER_16_157
*856 FILLER_16_171
*857 FILLER_16_175
*858 FILLER_16_192
*859 FILLER_16_197
*860 FILLER_16_21
*861 FILLER_16_217
*862 FILLER_16_237
*863 FILLER_16_249
*864 FILLER_16_253
*865 FILLER_16_265
*866 FILLER_16_27
*867 FILLER_16_277
*868 FILLER_16_289
*869 FILLER_16_29
*870 FILLER_16_297
*871 FILLER_16_3
*872 FILLER_16_35
*873 FILLER_16_44
*874 FILLER_16_55
*875 FILLER_16_67
*876 FILLER_16_79
*877 FILLER_16_83
*878 FILLER_16_85
*879 FILLER_16_93
*880 FILLER_16_99
*881 FILLER_17_107
*882 FILLER_17_111
*883 FILLER_17_113
*884 FILLER_17_136
*885 FILLER_17_14
*886 FILLER_17_140
*887 FILLER_17_145
*888 FILLER_17_166
*889 FILLER_17_169
*890 FILLER_17_178
*891 FILLER_17_188
*892 FILLER_17_192
*893 FILLER_17_209
*894 FILLER_17_221
*895 FILLER_17_225
*896 FILLER_17_235
*897 FILLER_17_247
*898 FILLER_17_254
*899 FILLER_17_26
*900 FILLER_17_266
*901 FILLER_17_278
*902 FILLER_17_281
*903 FILLER_17_293
*904 FILLER_17_3
*905 FILLER_17_32
*906 FILLER_17_37
*907 FILLER_17_48
*908 FILLER_17_57
*909 FILLER_17_67
*910 FILLER_17_71
*911 FILLER_17_77
*912 FILLER_17_86
*913 FILLER_17_94
*914 FILLER_17_99
*915 FILLER_18_100
*916 FILLER_18_106
*917 FILLER_18_114
*918 FILLER_18_125
*919 FILLER_18_138
*920 FILLER_18_141
*921 FILLER_18_150
*922 FILLER_18_158
*923 FILLER_18_17
*924 FILLER_18_170
*925 FILLER_18_190
*926 FILLER_18_197
*927 FILLER_18_207
*928 FILLER_18_211
*929 FILLER_18_228
*930 FILLER_18_248
*931 FILLER_18_253
*932 FILLER_18_26
*933 FILLER_18_265
*934 FILLER_18_277
*935 FILLER_18_289
*936 FILLER_18_29
*937 FILLER_18_297
*938 FILLER_18_3
*939 FILLER_18_47
*940 FILLER_18_58
*941 FILLER_18_70
*942 FILLER_18_76
*943 FILLER_18_81
*944 FILLER_18_85
*945 FILLER_18_91
*946 FILLER_19_108
*947 FILLER_19_11
*948 FILLER_19_113
*949 FILLER_19_120
*950 FILLER_19_133
*951 FILLER_19_140
*952 FILLER_19_153
*953 FILLER_19_161
*954 FILLER_19_166
*955 FILLER_19_169
*956 FILLER_19_174
*957 FILLER_19_186
*958 FILLER_19_19
*959 FILLER_19_206
*960 FILLER_19_218
*961 FILLER_19_225
*962 FILLER_19_23
*963 FILLER_19_235
*964 FILLER_19_247
*965 FILLER_19_259
*966 FILLER_19_271
*967 FILLER_19_279
*968 FILLER_19_281
*969 FILLER_19_293
*970 FILLER_19_3
*971 FILLER_19_40
*972 FILLER_19_44
*973 FILLER_19_51
*974 FILLER_19_55
*975 FILLER_19_57
*976 FILLER_19_72
*977 FILLER_19_82
*978 FILLER_19_95
*979 FILLER_1_110
*980 FILLER_1_113
*981 FILLER_1_117
*982 FILLER_1_126
*983 FILLER_1_146
*984 FILLER_1_166
*985 FILLER_1_169
*986 FILLER_1_18
*987 FILLER_1_187
*988 FILLER_1_199
*989 FILLER_1_211
*990 FILLER_1_218
*991 FILLER_1_225
*992 FILLER_1_237
*993 FILLER_1_249
*994 FILLER_1_261
*995 FILLER_1_273
*996 FILLER_1_279
*997 FILLER_1_281
*998 FILLER_1_293
*999 FILLER_1_3
*1000 FILLER_1_30
*1001 FILLER_1_42
*1002 FILLER_1_54
*1003 FILLER_1_57
*1004 FILLER_1_61
*1005 FILLER_1_70
*1006 FILLER_1_9
*1007 FILLER_1_90
*1008 FILLER_20_106
*1009 FILLER_20_114
*1010 FILLER_20_121
*1011 FILLER_20_125
*1012 FILLER_20_135
*1013 FILLER_20_139
*1014 FILLER_20_141
*1015 FILLER_20_147
*1016 FILLER_20_167
*1017 FILLER_20_174
*1018 FILLER_20_194
*1019 FILLER_20_197
*1020 FILLER_20_202
*1021 FILLER_20_206
*1022 FILLER_20_22
*1023 FILLER_20_223
*1024 FILLER_20_235
*1025 FILLER_20_247
*1026 FILLER_20_251
*1027 FILLER_20_253
*1028 FILLER_20_265
*1029 FILLER_20_277
*1030 FILLER_20_289
*1031 FILLER_20_29
*1032 FILLER_20_297
*1033 FILLER_20_3
*1034 FILLER_20_34
*1035 FILLER_20_41
*1036 FILLER_20_52
*1037 FILLER_20_65
*1038 FILLER_20_82
*1039 FILLER_20_85
*1040 FILLER_20_9
*1041 FILLER_20_96
*1042 FILLER_21_110
*1043 FILLER_21_113
*1044 FILLER_21_120
*1045 FILLER_21_126
*1046 FILLER_21_147
*1047 FILLER_21_154
*1048 FILLER_21_166
*1049 FILLER_21_169
*1050 FILLER_21_189
*1051 FILLER_21_196
*1052 FILLER_21_218
*1053 FILLER_21_225
*1054 FILLER_21_23
*1055 FILLER_21_243
*1056 FILLER_21_255
*1057 FILLER_21_267
*1058 FILLER_21_279
*1059 FILLER_21_281
*1060 FILLER_21_293
*1061 FILLER_21_3
*1062 FILLER_21_47
*1063 FILLER_21_54
*1064 FILLER_21_57
*1065 FILLER_21_67
*1066 FILLER_21_76
*1067 FILLER_21_85
*1068 FILLER_21_97
*1069 FILLER_22_100
*1070 FILLER_22_104
*1071 FILLER_22_124
*1072 FILLER_22_137
*1073 FILLER_22_141
*1074 FILLER_22_152
*1075 FILLER_22_172
*1076 FILLER_22_176
*1077 FILLER_22_185
*1078 FILLER_22_192
*1079 FILLER_22_197
*1080 FILLER_22_21
*1081 FILLER_22_215
*1082 FILLER_22_221
*1083 FILLER_22_238
*1084 FILLER_22_250
*1085 FILLER_22_253
*1086 FILLER_22_265
*1087 FILLER_22_27
*1088 FILLER_22_277
*1089 FILLER_22_289
*1090 FILLER_22_29
*1091 FILLER_22_297
*1092 FILLER_22_3
*1093 FILLER_22_35
*1094 FILLER_22_39
*1095 FILLER_22_46
*1096 FILLER_22_54
*1097 FILLER_22_65
*1098 FILLER_22_82
*1099 FILLER_22_85
*1100 FILLER_22_96
*1101 FILLER_23_108
*1102 FILLER_23_113
*1103 FILLER_23_126
*1104 FILLER_23_143
*1105 FILLER_23_163
*1106 FILLER_23_167
*1107 FILLER_23_169
*1108 FILLER_23_175
*1109 FILLER_23_197
*1110 FILLER_23_217
*1111 FILLER_23_223
*1112 FILLER_23_225
*1113 FILLER_23_235
*1114 FILLER_23_247
*1115 FILLER_23_259
*1116 FILLER_23_271
*1117 FILLER_23_279
*1118 FILLER_23_281
*1119 FILLER_23_293
*1120 FILLER_23_3
*1121 FILLER_23_35
*1122 FILLER_23_48
*1123 FILLER_23_57
*1124 FILLER_23_77
*1125 FILLER_23_8
*1126 FILLER_23_88
*1127 FILLER_24_103
*1128 FILLER_24_110
*1129 FILLER_24_132
*1130 FILLER_24_141
*1131 FILLER_24_147
*1132 FILLER_24_15
*1133 FILLER_24_154
*1134 FILLER_24_174
*1135 FILLER_24_19
*1136 FILLER_24_194
*1137 FILLER_24_197
*1138 FILLER_24_207
*1139 FILLER_24_211
*1140 FILLER_24_228
*1141 FILLER_24_248
*1142 FILLER_24_253
*1143 FILLER_24_26
*1144 FILLER_24_265
*1145 FILLER_24_277
*1146 FILLER_24_289
*1147 FILLER_24_29
*1148 FILLER_24_297
*1149 FILLER_24_3
*1150 FILLER_24_38
*1151 FILLER_24_49
*1152 FILLER_24_62
*1153 FILLER_24_70
*1154 FILLER_24_78
*1155 FILLER_24_82
*1156 FILLER_24_85
*1157 FILLER_24_9
*1158 FILLER_24_90
*1159 FILLER_25_100
*1160 FILLER_25_110
*1161 FILLER_25_113
*1162 FILLER_25_117
*1163 FILLER_25_12
*1164 FILLER_25_121
*1165 FILLER_25_128
*1166 FILLER_25_132
*1167 FILLER_25_149
*1168 FILLER_25_166
*1169 FILLER_25_169
*1170 FILLER_25_187
*1171 FILLER_25_199
*1172 FILLER_25_20
*1173 FILLER_25_203
*1174 FILLER_25_220
*1175 FILLER_25_225
*1176 FILLER_25_235
*1177 FILLER_25_24
*1178 FILLER_25_247
*1179 FILLER_25_259
*1180 FILLER_25_271
*1181 FILLER_25_279
*1182 FILLER_25_281
*1183 FILLER_25_293
*1184 FILLER_25_3
*1185 FILLER_25_32
*1186 FILLER_25_38
*1187 FILLER_25_42
*1188 FILLER_25_50
*1189 FILLER_25_57
*1190 FILLER_25_64
*1191 FILLER_25_70
*1192 FILLER_25_76
*1193 FILLER_25_96
*1194 FILLER_26_109
*1195 FILLER_26_116
*1196 FILLER_26_120
*1197 FILLER_26_126
*1198 FILLER_26_138
*1199 FILLER_26_141
*1200 FILLER_26_145
*1201 FILLER_26_162
*1202 FILLER_26_174
*1203 FILLER_26_182
*1204 FILLER_26_194
*1205 FILLER_26_197
*1206 FILLER_26_215
*1207 FILLER_26_227
*1208 FILLER_26_239
*1209 FILLER_26_251
*1210 FILLER_26_253
*1211 FILLER_26_26
*1212 FILLER_26_265
*1213 FILLER_26_277
*1214 FILLER_26_289
*1215 FILLER_26_29
*1216 FILLER_26_297
*1217 FILLER_26_3
*1218 FILLER_26_55
*1219 FILLER_26_63
*1220 FILLER_26_69
*1221 FILLER_26_82
*1222 FILLER_26_85
*1223 FILLER_27_102
*1224 FILLER_27_110
*1225 FILLER_27_113
*1226 FILLER_27_117
*1227 FILLER_27_121
*1228 FILLER_27_141
*1229 FILLER_27_161
*1230 FILLER_27_167
*1231 FILLER_27_169
*1232 FILLER_27_187
*1233 FILLER_27_207
*1234 FILLER_27_219
*1235 FILLER_27_223
*1236 FILLER_27_225
*1237 FILLER_27_237
*1238 FILLER_27_249
*1239 FILLER_27_25
*1240 FILLER_27_261
*1241 FILLER_27_273
*1242 FILLER_27_279
*1243 FILLER_27_281
*1244 FILLER_27_293
*1245 FILLER_27_3
*1246 FILLER_27_36
*1247 FILLER_27_44
*1248 FILLER_27_50
*1249 FILLER_27_57
*1250 FILLER_27_68
*1251 FILLER_27_72
*1252 FILLER_27_78
*1253 FILLER_27_85
*1254 FILLER_27_93
*1255 FILLER_27_98
*1256 FILLER_28_105
*1257 FILLER_28_115
*1258 FILLER_28_127
*1259 FILLER_28_134
*1260 FILLER_28_141
*1261 FILLER_28_151
*1262 FILLER_28_173
*1263 FILLER_28_185
*1264 FILLER_28_193
*1265 FILLER_28_197
*1266 FILLER_28_207
*1267 FILLER_28_219
*1268 FILLER_28_231
*1269 FILLER_28_243
*1270 FILLER_28_25
*1271 FILLER_28_251
*1272 FILLER_28_253
*1273 FILLER_28_265
*1274 FILLER_28_277
*1275 FILLER_28_289
*1276 FILLER_28_29
*1277 FILLER_28_297
*1278 FILLER_28_3
*1279 FILLER_28_38
*1280 FILLER_28_44
*1281 FILLER_28_53
*1282 FILLER_28_64
*1283 FILLER_28_74
*1284 FILLER_28_78
*1285 FILLER_28_82
*1286 FILLER_28_85
*1287 FILLER_28_92
*1288 FILLER_28_98
*1289 FILLER_29_110
*1290 FILLER_29_113
*1291 FILLER_29_123
*1292 FILLER_29_13
*1293 FILLER_29_130
*1294 FILLER_29_143
*1295 FILLER_29_155
*1296 FILLER_29_167
*1297 FILLER_29_169
*1298 FILLER_29_181
*1299 FILLER_29_187
*1300 FILLER_29_204
*1301 FILLER_29_216
*1302 FILLER_29_225
*1303 FILLER_29_23
*1304 FILLER_29_237
*1305 FILLER_29_249
*1306 FILLER_29_261
*1307 FILLER_29_273
*1308 FILLER_29_279
*1309 FILLER_29_281
*1310 FILLER_29_293
*1311 FILLER_29_3
*1312 FILLER_29_32
*1313 FILLER_29_42
*1314 FILLER_29_53
*1315 FILLER_29_57
*1316 FILLER_29_67
*1317 FILLER_29_75
*1318 FILLER_29_83
*1319 FILLER_29_9
*1320 FILLER_2_118
*1321 FILLER_2_138
*1322 FILLER_2_14
*1323 FILLER_2_141
*1324 FILLER_2_155
*1325 FILLER_2_167
*1326 FILLER_2_187
*1327 FILLER_2_194
*1328 FILLER_2_197
*1329 FILLER_2_215
*1330 FILLER_2_219
*1331 FILLER_2_224
*1332 FILLER_2_228
*1333 FILLER_2_233
*1334 FILLER_2_245
*1335 FILLER_2_251
*1336 FILLER_2_253
*1337 FILLER_2_26
*1338 FILLER_2_265
*1339 FILLER_2_277
*1340 FILLER_2_289
*1341 FILLER_2_29
*1342 FILLER_2_297
*1343 FILLER_2_3
*1344 FILLER_2_40
*1345 FILLER_2_52
*1346 FILLER_2_72
*1347 FILLER_2_78
*1348 FILLER_2_82
*1349 FILLER_2_85
*1350 FILLER_2_89
*1351 FILLER_2_98
*1352 FILLER_30_103
*1353 FILLER_30_111
*1354 FILLER_30_116
*1355 FILLER_30_138