*SPEF "ieee 1481-1999"
*DESIGN "xor_shift32_quantamhd"
*DATE "11:11:11 Fri 11 11, 1111"
*VENDOR "OpenRCX"
*PROGRAM "Parallel Extraction"
*VERSION "1.0"
*DESIGN_FLOW "NAME_SCOPE LOCAL" "PIN_CAP NONE"
*DIVIDER /
*DELIMITER :
*BUS_DELIMITER []
*T_UNIT 1 NS
*C_UNIT 1 PF
*R_UNIT 1 OHM
*L_UNIT 1 HENRY

*NAME_MAP
*1 io_in[0]
*2 io_in[1]
*3 io_in[2]
*4 io_in[3]
*5 io_in[4]
*6 io_in[5]
*7 io_in[6]
*8 io_in[7]
*9 io_out[0]
*10 io_out[1]
*11 io_out[2]
*12 io_out[3]
*13 io_out[4]
*14 io_out[5]
*15 io_out[6]
*16 net8
*19 _000_
*20 _001_
*21 _002_
*22 _003_
*23 _004_
*24 _005_
*25 _006_
*26 _007_
*27 _008_
*28 _009_
*29 _010_
*30 _011_
*31 _012_
*32 _013_
*33 _014_
*34 _015_
*35 _016_
*36 _017_
*37 _018_
*38 _019_
*39 _020_
*40 _021_
*41 _022_
*42 _023_
*43 _024_
*44 _025_
*45 _026_
*46 _027_
*47 _028_
*48 _029_
*49 _030_
*50 _031_
*51 _032_
*52 _033_
*53 _034_
*54 _035_
*55 _036_
*56 _037_
*57 _038_
*58 _039_
*59 _040_
*60 _041_
*61 _042_
*62 _043_
*63 _044_
*64 _045_
*65 _046_
*66 _047_
*67 _048_
*68 _049_
*69 _050_
*70 _051_
*71 _052_
*72 _053_
*73 _054_
*74 _055_
*75 _056_
*76 _057_
*77 _058_
*78 _059_
*79 _060_
*80 _061_
*81 _062_
*82 _063_
*83 _064_
*84 _065_
*85 _066_
*86 _067_
*87 _068_
*88 _069_
*89 _070_
*90 _071_
*91 _072_
*92 _073_
*93 _074_
*94 _075_
*95 _076_
*96 _077_
*97 _078_
*98 _079_
*99 _080_
*100 _081_
*101 _082_
*102 _083_
*103 _084_
*104 _085_
*105 _086_
*106 _087_
*107 _088_
*108 _089_
*109 _090_
*110 _091_
*111 _092_
*112 _093_
*113 _094_
*114 _095_
*115 _096_
*116 _097_
*117 _098_
*118 _099_
*119 _100_
*120 _101_
*121 _102_
*122 _103_
*123 _104_
*124 _105_
*125 _106_
*126 _107_
*127 _108_
*128 _109_
*129 _110_
*130 _111_
*131 _112_
*132 _113_
*133 _114_
*134 _115_
*135 _116_
*136 _117_
*137 _118_
*138 _119_
*139 _120_
*140 _121_
*141 _122_
*142 _123_
*143 _124_
*144 _125_
*145 _126_
*146 _127_
*147 _128_
*148 _129_
*149 _130_
*150 _131_
*151 _132_
*152 _133_
*153 _134_
*154 _135_
*155 _136_
*156 _137_
*157 _138_
*158 _139_
*159 _140_
*160 _141_
*161 _142_
*162 _143_
*163 _144_
*164 _145_
*165 _146_
*166 _147_
*167 _148_
*168 _149_
*169 _150_
*170 _151_
*171 _152_
*172 _153_
*173 _154_
*174 _155_
*175 _156_
*176 _157_
*177 _158_
*178 _159_
*179 _160_
*180 _161_
*181 _162_
*182 _163_
*183 _164_
*184 _165_
*185 _166_
*186 _167_
*187 _168_
*188 _169_
*189 _170_
*190 _171_
*191 _172_
*192 _173_
*193 _174_
*194 _175_
*195 _176_
*196 _177_
*197 _178_
*198 _179_
*199 _180_
*200 _181_
*201 _182_
*202 _183_
*203 _184_
*204 _185_
*205 _186_
*206 _187_
*207 _188_
*208 _189_
*209 _190_
*210 _191_
*211 _192_
*212 _193_
*213 _194_
*214 _195_
*215 _196_
*216 _197_
*217 _198_
*218 _199_
*219 _200_
*220 _201_
*221 clknet_0_io_in[0]
*222 clknet_2_0__leaf_io_in[0]
*223 clknet_2_1__leaf_io_in[0]
*224 clknet_2_2__leaf_io_in[0]
*225 clknet_2_3__leaf_io_in[0]
*226 inital_state\[0\]
*227 inital_state\[10\]
*228 inital_state\[11\]
*229 inital_state\[12\]
*230 inital_state\[13\]
*231 inital_state\[14\]
*232 inital_state\[15\]
*233 inital_state\[16\]
*234 inital_state\[17\]
*235 inital_state\[18\]
*236 inital_state\[19\]
*237 inital_state\[1\]
*238 inital_state\[20\]
*239 inital_state\[21\]
*240 inital_state\[22\]
*241 inital_state\[23\]
*242 inital_state\[24\]
*243 inital_state\[25\]
*244 inital_state\[26\]
*245 inital_state\[27\]
*246 inital_state\[28\]
*247 inital_state\[29\]
*248 inital_state\[2\]
*249 inital_state\[30\]
*250 inital_state\[31\]
*251 inital_state\[3\]
*252 inital_state\[4\]
*253 inital_state\[5\]
*254 inital_state\[6\]
*255 inital_state\[7\]
*256 inital_state\[8\]
*257 inital_state\[9\]
*258 net1
*259 net2
*260 net3
*261 net4
*262 net5
*263 net6
*264 net7
*265 second_counter\[0\]
*266 second_counter\[1\]
*267 second_counter\[2\]
*268 second_counter\[3\]
*269 second_counter\[4\]
*270 second_counter\[5\]
*271 second_counter\[6\]
*272 second_counter\[7\]
*273 second_counter\[8\]
*274 second_counter\[9\]
*275 seg7\.counter\[0\]
*276 seg7\.counter\[1\]
*277 seg7\.counter\[2\]
*278 ANTENNA_1
*279 FILLER_0_103
*280 FILLER_0_111
*281 FILLER_0_113
*282 FILLER_0_131
*283 FILLER_0_139
*284 FILLER_0_141
*285 FILLER_0_151
*286 FILLER_0_163
*287 FILLER_0_167
*288 FILLER_0_169
*289 FILLER_0_181
*290 FILLER_0_193
*291 FILLER_0_197
*292 FILLER_0_209
*293 FILLER_0_221
*294 FILLER_0_225
*295 FILLER_0_237
*296 FILLER_0_249
*297 FILLER_0_253
*298 FILLER_0_26
*299 FILLER_0_265
*300 FILLER_0_277
*301 FILLER_0_281
*302 FILLER_0_29
*303 FILLER_0_293
*304 FILLER_0_3
*305 FILLER_0_54
*306 FILLER_0_57
*307 FILLER_0_77
*308 FILLER_0_83
*309 FILLER_0_85
*310 FILLER_10_107
*311 FILLER_10_116
*312 FILLER_10_128
*313 FILLER_10_141
*314 FILLER_10_160
*315 FILLER_10_172
*316 FILLER_10_184
*317 FILLER_10_197
*318 FILLER_10_209
*319 FILLER_10_221
*320 FILLER_10_233
*321 FILLER_10_245
*322 FILLER_10_251
*323 FILLER_10_253
*324 FILLER_10_26
*325 FILLER_10_265
*326 FILLER_10_277
*327 FILLER_10_289
*328 FILLER_10_29
*329 FILLER_10_297
*330 FILLER_10_3
*331 FILLER_10_48
*332 FILLER_10_60
*333 FILLER_10_79
*334 FILLER_10_83
*335 FILLER_10_85
*336 FILLER_10_9
*337 FILLER_10_99
*338 FILLER_11_109
*339 FILLER_11_113
*340 FILLER_11_117
*341 FILLER_11_121
*342 FILLER_11_133
*343 FILLER_11_145
*344 FILLER_11_157
*345 FILLER_11_165
*346 FILLER_11_169
*347 FILLER_11_181
*348 FILLER_11_193
*349 FILLER_11_205
*350 FILLER_11_217
*351 FILLER_11_223
*352 FILLER_11_225
*353 FILLER_11_237
*354 FILLER_11_249
*355 FILLER_11_26
*356 FILLER_11_261
*357 FILLER_11_273
*358 FILLER_11_279
*359 FILLER_11_281
*360 FILLER_11_293
*361 FILLER_11_3
*362 FILLER_11_30
*363 FILLER_11_47
*364 FILLER_11_55
*365 FILLER_11_57
*366 FILLER_11_61
*367 FILLER_11_79
*368 FILLER_11_99
*369 FILLER_12_105
*370 FILLER_12_116
*371 FILLER_12_123
*372 FILLER_12_135
*373 FILLER_12_139
*374 FILLER_12_141
*375 FILLER_12_153
*376 FILLER_12_165
*377 FILLER_12_177
*378 FILLER_12_189
*379 FILLER_12_195
*380 FILLER_12_197
*381 FILLER_12_209
*382 FILLER_12_221
*383 FILLER_12_233
*384 FILLER_12_245
*385 FILLER_12_25
*386 FILLER_12_251
*387 FILLER_12_253
*388 FILLER_12_265
*389 FILLER_12_277
*390 FILLER_12_289
*391 FILLER_12_29
*392 FILLER_12_297
*393 FILLER_12_3
*394 FILLER_12_34
*395 FILLER_12_42
*396 FILLER_12_65
*397 FILLER_12_73
*398 FILLER_12_82
*399 FILLER_12_85
*400 FILLER_12_90
*401 FILLER_12_96
*402 FILLER_13_102
*403 FILLER_13_110
*404 FILLER_13_113
*405 FILLER_13_119
*406 FILLER_13_131
*407 FILLER_13_143
*408 FILLER_13_151
*409 FILLER_13_161
*410 FILLER_13_167
*411 FILLER_13_169
*412 FILLER_13_181
*413 FILLER_13_193
*414 FILLER_13_205
*415 FILLER_13_217
*416 FILLER_13_22
*417 FILLER_13_223
*418 FILLER_13_225
*419 FILLER_13_237
*420 FILLER_13_249
*421 FILLER_13_261
*422 FILLER_13_273
*423 FILLER_13_279
*424 FILLER_13_281
*425 FILLER_13_29
*426 FILLER_13_293
*427 FILLER_13_3
*428 FILLER_13_35
*429 FILLER_13_52
*430 FILLER_13_57
*431 FILLER_13_79
*432 FILLER_13_95
*433 FILLER_14_102
*434 FILLER_14_106
*435 FILLER_14_114
*436 FILLER_14_137
*437 FILLER_14_141
*438 FILLER_14_153
*439 FILLER_14_165
*440 FILLER_14_177
*441 FILLER_14_189
*442 FILLER_14_195
*443 FILLER_14_197
*444 FILLER_14_209
*445 FILLER_14_22
*446 FILLER_14_221
*447 FILLER_14_233
*448 FILLER_14_245
*449 FILLER_14_251
*450 FILLER_14_253
*451 FILLER_14_265
*452 FILLER_14_277
*453 FILLER_14_289
*454 FILLER_14_29
*455 FILLER_14_297
*456 FILLER_14_3
*457 FILLER_14_34
*458 FILLER_14_40
*459 FILLER_14_57
*460 FILLER_14_79
*461 FILLER_14_83
*462 FILLER_14_85
*463 FILLER_14_94
*464 FILLER_15_100
*465 FILLER_15_107
*466 FILLER_15_111
*467 FILLER_15_113
*468 FILLER_15_12
*469 FILLER_15_120
*470 FILLER_15_132
*471 FILLER_15_141
*472 FILLER_15_153
*473 FILLER_15_165
*474 FILLER_15_169
*475 FILLER_15_181
*476 FILLER_15_193
*477 FILLER_15_205
*478 FILLER_15_217
*479 FILLER_15_223
*480 FILLER_15_225
*481 FILLER_15_237
*482 FILLER_15_249
*483 FILLER_15_261
*484 FILLER_15_273
*485 FILLER_15_279
*486 FILLER_15_281
*487 FILLER_15_293
*488 FILLER_15_3
*489 FILLER_15_33
*490 FILLER_15_54
*491 FILLER_15_57
*492 FILLER_15_80
*493 FILLER_16_103
*494 FILLER_16_111
*495 FILLER_16_120
*496 FILLER_16_132
*497 FILLER_16_141
*498 FILLER_16_150
*499 FILLER_16_162
*500 FILLER_16_174
*501 FILLER_16_186
*502 FILLER_16_194
*503 FILLER_16_197
*504 FILLER_16_209
*505 FILLER_16_22
*506 FILLER_16_221
*507 FILLER_16_233
*508 FILLER_16_245
*509 FILLER_16_251
*510 FILLER_16_253
*511 FILLER_16_265
*512 FILLER_16_277
*513 FILLER_16_289
*514 FILLER_16_29
*515 FILLER_16_297
*516 FILLER_16_3
*517 FILLER_16_47
*518 FILLER_16_59
*519 FILLER_16_78
*520 FILLER_16_85
*521 FILLER_16_93
*522 FILLER_17_102
*523 FILLER_17_109
*524 FILLER_17_113
*525 FILLER_17_128
*526 FILLER_17_14
*527 FILLER_17_140
*528 FILLER_17_152
*529 FILLER_17_163
*530 FILLER_17_167
*531 FILLER_17_169
*532 FILLER_17_181
*533 FILLER_17_193
*534 FILLER_17_205
*535 FILLER_17_217
*536 FILLER_17_223
*537 FILLER_17_225
*538 FILLER_17_237
*539 FILLER_17_249
*540 FILLER_17_261
*541 FILLER_17_273
*542 FILLER_17_279
*543 FILLER_17_281
*544 FILLER_17_293
*545 FILLER_17_3
*546 FILLER_17_34
*547 FILLER_17_43
*548 FILLER_17_50
*549 FILLER_17_57
*550 FILLER_17_61
*551 FILLER_17_78
*552 FILLER_17_94
*553 FILLER_18_104
*554 FILLER_18_112
*555 FILLER_18_125
*556 FILLER_18_137
*557 FILLER_18_141
*558 FILLER_18_150
*559 FILLER_18_162
*560 FILLER_18_174
*561 FILLER_18_186
*562 FILLER_18_194
*563 FILLER_18_197
*564 FILLER_18_209
*565 FILLER_18_21
*566 FILLER_18_221
*567 FILLER_18_233
*568 FILLER_18_245
*569 FILLER_18_251
*570 FILLER_18_253
*571 FILLER_18_265
*572 FILLER_18_27
*573 FILLER_18_277
*574 FILLER_18_289
*575 FILLER_18_29
*576 FILLER_18_297
*577 FILLER_18_3
*578 FILLER_18_37
*579 FILLER_18_45
*580 FILLER_18_51
*581 FILLER_18_60
*582 FILLER_18_67
*583 FILLER_18_73
*584 FILLER_18_82
*585 FILLER_18_85
*586 FILLER_18_96
*587 FILLER_19_11
*588 FILLER_19_110
*589 FILLER_19_113
*590 FILLER_19_137
*591 FILLER_19_149
*592 FILLER_19_15
*593 FILLER_19_161
*594 FILLER_19_167
*595 FILLER_19_169
*596 FILLER_19_181
*597 FILLER_19_193
*598 FILLER_19_205
*599 FILLER_19_217
*600 FILLER_19_223
*601 FILLER_19_225
*602 FILLER_19_23
*603 FILLER_19_237
*604 FILLER_19_249
*605 FILLER_19_261
*606 FILLER_19_273
*607 FILLER_19_279
*608 FILLER_19_281
*609 FILLER_19_293
*610 FILLER_19_3
*611 FILLER_19_30
*612 FILLER_19_41
*613 FILLER_19_54
*614 FILLER_19_57
*615 FILLER_19_61
*616 FILLER_19_84
*617 FILLER_1_108
*618 FILLER_1_113
*619 FILLER_1_117
*620 FILLER_1_140
*621 FILLER_1_15
*622 FILLER_1_157
*623 FILLER_1_165
*624 FILLER_1_169
*625 FILLER_1_173
*626 FILLER_1_182
*627 FILLER_1_194
*628 FILLER_1_206
*629 FILLER_1_218
*630 FILLER_1_225
*631 FILLER_1_237
*632 FILLER_1_249
*633 FILLER_1_261
*634 FILLER_1_273
*635 FILLER_1_279
*636 FILLER_1_281
*637 FILLER_1_293
*638 FILLER_1_3
*639 FILLER_1_33
*640 FILLER_1_54
*641 FILLER_1_57
*642 FILLER_1_77
*643 FILLER_1_85
*644 FILLER_20_108
*645 FILLER_20_12
*646 FILLER_20_126
*647 FILLER_20_138
*648 FILLER_20_141
*649 FILLER_20_152
*650 FILLER_20_164
*651 FILLER_20_176
*652 FILLER_20_188
*653 FILLER_20_197
*654 FILLER_20_209
*655 FILLER_20_22
*656 FILLER_20_221
*657 FILLER_20_233
*658 FILLER_20_245
*659 FILLER_20_251
*660 FILLER_20_253
*661 FILLER_20_265
*662 FILLER_20_277
*663 FILLER_20_289
*664 FILLER_20_29
*665 FILLER_20_297
*666 FILLER_20_3
*667 FILLER_20_35
*668 FILLER_20_45
*669 FILLER_20_60
*670 FILLER_20_68
*671 FILLER_20_74
*672 FILLER_20_78
*673 FILLER_20_85
*674 FILLER_20_92
*675 FILLER_20_99
*676 FILLER_21_103
*677 FILLER_21_111
*678 FILLER_21_113
*679 FILLER_21_125
*680 FILLER_21_132
*681 FILLER_21_149
*682 FILLER_21_15
*683 FILLER_21_161
*684 FILLER_21_167
*685 FILLER_21_169
*686 FILLER_21_174
*687 FILLER_21_186
*688 FILLER_21_198
*689 FILLER_21_20
*690 FILLER_21_210
*691 FILLER_21_222
*692 FILLER_21_225
*693 FILLER_21_237
*694 FILLER_21_249
*695 FILLER_21_261
*696 FILLER_21_27
*697 FILLER_21_273
*698 FILLER_21_279
*699 FILLER_21_281
*700 FILLER_21_293
*701 FILLER_21_3
*702 FILLER_21_31
*703 FILLER_21_35
*704 FILLER_21_54
*705 FILLER_21_57
*706 FILLER_21_68
*707 FILLER_21_74
*708 FILLER_21_78
*709 FILLER_21_86
*710 FILLER_21_9
*711 FILLER_21_96
*712 FILLER_22_10
*713 FILLER_22_106
*714 FILLER_22_120
*715 FILLER_22_132
*716 FILLER_22_141
*717 FILLER_22_153
*718 FILLER_22_16
*719 FILLER_22_165
*720 FILLER_22_177
*721 FILLER_22_189
*722 FILLER_22_195
*723 FILLER_22_197
*724 FILLER_22_209
*725 FILLER_22_221
*726 FILLER_22_233
*727 FILLER_22_245
*728 FILLER_22_251
*729 FILLER_22_253
*730 FILLER_22_26
*731 FILLER_22_265
*732 FILLER_22_277
*733 FILLER_22_289
*734 FILLER_22_29
*735 FILLER_22_297
*736 FILLER_22_3
*737 FILLER_22_44
*738 FILLER_22_51
*739 FILLER_22_55
*740 FILLER_22_59
*741 FILLER_22_70
*742 FILLER_22_82
*743 FILLER_22_85
*744 FILLER_22_94
*745 FILLER_23_110
*746 FILLER_23_113
*747 FILLER_23_128
*748 FILLER_23_14
*749 FILLER_23_140
*750 FILLER_23_152
*751 FILLER_23_164
*752 FILLER_23_169
*753 FILLER_23_181
*754 FILLER_23_193
*755 FILLER_23_205
*756 FILLER_23_217
*757 FILLER_23_223
*758 FILLER_23_225
*759 FILLER_23_237
*760 FILLER_23_249
*761 FILLER_23_25
*762 FILLER_23_261
*763 FILLER_23_273
*764 FILLER_23_279
*765 FILLER_23_281
*766 FILLER_23_293
*767 FILLER_23_3
*768 FILLER_23_32
*769 FILLER_23_39
*770 FILLER_23_43
*771 FILLER_23_47
*772 FILLER_23_54
*773 FILLER_23_57
*774 FILLER_23_81
*775 FILLER_23_87
*776 FILLER_24_101
*777 FILLER_24_112
*778 FILLER_24_124
*779 FILLER_24_136
*780 FILLER_24_14
*781 FILLER_24_141
*782 FILLER_24_150
*783 FILLER_24_162
*784 FILLER_24_174
*785 FILLER_24_186
*786 FILLER_24_194
*787 FILLER_24_197
*788 FILLER_24_209
*789 FILLER_24_221
*790 FILLER_24_233
*791 FILLER_24_245
*792 FILLER_24_251
*793 FILLER_24_253
*794 FILLER_24_26
*795 FILLER_24_265
*796 FILLER_24_277
*797 FILLER_24_289
*798 FILLER_24_29
*799 FILLER_24_297
*800 FILLER_24_3
*801 FILLER_24_38
*802 FILLER_24_55
*803 FILLER_24_67
*804 FILLER_24_75
*805 FILLER_24_83
*806 FILLER_24_85
*807 FILLER_24_93
*808 FILLER_25_111
*809 FILLER_25_113
*810 FILLER_25_122
*811 FILLER_25_134
*812 FILLER_25_146
*813 FILLER_25_158
*814 FILLER_25_166
*815 FILLER_25_169
*816 FILLER_25_17
*817 FILLER_25_181
*818 FILLER_25_193
*819 FILLER_25_205
*820 FILLER_25_217
*821 FILLER_25_223
*822 FILLER_25_225
*823 FILLER_25_237
*824 FILLER_25_249
*825 FILLER_25_261
*826 FILLER_25_273
*827 FILLER_25_279
*828 FILLER_25_281
*829 FILLER_25_293
*830 FILLER_25_3
*831 FILLER_25_43
*832 FILLER_25_54
*833 FILLER_25_57
*834 FILLER_25_66
*835 FILLER_25_76
*836 FILLER_25_87
*837 FILLER_25_99
*838 FILLER_26_109
*839 FILLER_26_121
*840 FILLER_26_133
*841 FILLER_26_139
*842 FILLER_26_141
*843 FILLER_26_157
*844 FILLER_26_169
*845 FILLER_26_181
*846 FILLER_26_19
*847 FILLER_26_193
*848 FILLER_26_197
*849 FILLER_26_209
*850 FILLER_26_221
*851 FILLER_26_233
*852 FILLER_26_245
*853 FILLER_26_251
*854 FILLER_26_253
*855 FILLER_26_26
*856 FILLER_26_265
*857 FILLER_26_277
*858 FILLER_26_289
*859 FILLER_26_29
*860 FILLER_26_297
*861 FILLER_26_3
*862 FILLER_26_40
*863 FILLER_26_61
*864 FILLER_26_65
*865 FILLER_26_73
*866 FILLER_26_8
*867 FILLER_26_81
*868 FILLER_26_85
*869 FILLER_26_96
*870 FILLER_27_102
*871 FILLER_27_110
*872 FILLER_27_113
*873 FILLER_27_122
*874 FILLER_27_134
*875 FILLER_27_146
*876 FILLER_27_155
*877 FILLER_27_16
*878 FILLER_27_167
*879 FILLER_27_169
*880 FILLER_27_181
*881 FILLER_27_193
*882 FILLER_27_205
*883 FILLER_27_217
*884 FILLER_27_223
*885 FILLER_27_225
*886 FILLER_27_237
*887 FILLER_27_24
*888 FILLER_27_249
*889 FILLER_27_261
*890 FILLER_27_273
*891 FILLER_27_279
*892 FILLER_27_281
*893 FILLER_27_293
*894 FILLER_27_3
*895 FILLER_27_32
*896 FILLER_27_37
*897 FILLER_27_52
*898 FILLER_27_57
*899 FILLER_27_69
*900 FILLER_27_81
*901 FILLER_27_90
*902 FILLER_28_109
*903 FILLER_28_115
*904 FILLER_28_123
*905 FILLER_28_134
*906 FILLER_28_141
*907 FILLER_28_153
*908 FILLER_28_165
*909 FILLER_28_177
*910 FILLER_28_189
*911 FILLER_28_195
*912 FILLER_28_197
*913 FILLER_28_209
*914 FILLER_28_221
*915 FILLER_28_233
*916 FILLER_28_245
*917 FILLER_28_251
*918 FILLER_28_253
*919 FILLER_28_26
*920 FILLER_28_265
*921 FILLER_28_277
*922 FILLER_28_289
*923 FILLER_28_29
*924 FILLER_28_297
*925 FILLER_28_3
*926 FILLER_28_35
*927 FILLER_28_39
*928 FILLER_28_53
*929 FILLER_28_65
*930 FILLER_28_76
*931 FILLER_28_8
*932 FILLER_28_85
*933 FILLER_28_97
*934 FILLER_29_105
*935 FILLER_29_111
*936 FILLER_29_113
*937 FILLER_29_125
*938 FILLER_29_137
*939 FILLER_29_149
*940 FILLER_29_160
*941 FILLER_29_169
*942 FILLER_29_181
*943 FILLER_29_193
*944 FILLER_29_20
*945 FILLER_29_205
*946 FILLER_29_217
*947 FILLER_29_223
*948 FILLER_29_225
*949 FILLER_29_237
*950 FILLER_29_249
*951 FILLER_29_261
*952 FILLER_29_273
*953 FILLER_29_279
*954 FILLER_29_28
*955 FILLER_29_281
*956 FILLER_29_293
*957 FILLER_29_3
*958 FILLER_29_43
*959 FILLER_29_55
*960 FILLER_29_57
*961 FILLER_29_69
*962 FILLER_29_77
*963 FILLER_29_8
*964 FILLER_29_85
*965 FILLER_29_93
*966 FILLER_2_120
*967 FILLER_2_132
*968 FILLER_2_141
*969 FILLER_2_153
*970 FILLER_2_165
*971 FILLER_2_177
*972 FILLER_2_189
*973 FILLER_2_195
*974 FILLER_2_197
*975 FILLER_2_202
*976 FILLER_2_206
*977 FILLER_2_218
*978 FILLER_2_22
*979 FILLER_2_230
*980 FILLER_2_242
*981 FILLER_2_250
*982 FILLER_2_253
*983 FILLER_2_265
*984 FILLER_2_277
*985 FILLER_2_289
*986 FILLER_2_29
*987 FILLER_2_297
*988 FILLER_2_3
*989 FILLER_2_41
*990 FILLER_2_65
*991 FILLER_2_73
*992 FILLER_2_82
*993 FILLER_2_85
*994 FILLER_2_89
*995 FILLER_2_93
*996 FILLER_2_97
*997 FILLER_30_100
*998 FILLER_30_107
*999 FILLER_30_119
*1000 FILLER_30_131
*1001 FILLER_30_139
*1002 FILLER_30_141
*1003 FILLER_30_15
*1004 FILLER_30_153
*1005 FILLER_30_165
*1006 FILLER_30_177
*1007 FILLER_30_189
*1008 FILLER_30_195
*1009 FILLER_30_197
*1010 FILLER_30_209
*1011 FILLER_30_22
*1012 FILLER_30_221
*1013 FILLER_30_233
*1014 FILLER_30_245
*1015 FILLER_30_251
*1016 FILLER_30_253
*1017 FILLER_30_265
*1018 FILLER_30_277
*1019 FILLER_30_289
*1020 FILLER_30_29
*1021 FILLER_30_297
*1022 FILLER_30_3
*1023 FILLER_30_41
*1024 FILLER_30_45
*1025 FILLER_30_53
*1026 FILLER_30_64
*1027 FILLER_30_76
*1028 FILLER_30_85
*1029 FILLER_30_92
*1030 FILLER_31_108
*1031 FILLER_31_113
*1032 FILLER_31_122
*1033 FILLER_31_134
*1034 FILLER_31_146
*1035 FILLER_31_15
*1036 FILLER_31_158
*1037 FILLER_31_166
*1038 FILLER_31_169
*1039 FILLER_31_181
*1040 FILLER_31_193
*1041 FILLER_31_205
*1042 FILLER_31_217
*1043 FILLER_31_223
*1044 FILLER_31_225
*1045 FILLER_31_237
*1046 FILLER_31_249
*1047 FILLER_31_261
*1048 FILLER_31_27
*1049 FILLER_31_273
*1050 FILLER_31_279
*1051 FILLER_31_281
*1052 FILLER_31_293
*1053 FILLER_31_3
*1054 FILLER_31_31
*1055 FILLER_31_39
*1056 FILLER_31_52
*1057 FILLER_31_57
*1058 FILLER_31_72
*1059 FILLER_31_84
*1060 FILLER_31_96
*1061 FILLER_32_109
*1062 FILLER_32_121
*1063 FILLER_32_133
*1064 FILLER_32_139
*1065 FILLER_32_141
*1066 FILLER_32_153
*1067 FILLER_32_165
*1068 FILLER_32_177
*1069 FILLER_32_189
*1070 FILLER_32_195
*1071 FILLER_32_197
*1072 FILLER_32_209
*1073 FILLER_32_221
*1074 FILLER_32_233
*1075 FILLER_32_24
*1076 FILLER_32_245
*1077 FILLER_32_251
*1078 FILLER_32_253
*1079 FILLER_32_265
*1080 FILLER_32_277
*1081 FILLER_32_289
*1082 FILLER_32_29
*1083 FILLER_32_297
*1084 FILLER_32_3
*1085 FILLER_32_39
*1086 FILLER_32_58
*1087 FILLER_32_67
*1088 FILLER_32_74
*1089 FILLER_32_82
*1090 FILLER_32_85
*1091 FILLER_32_97
*1092 FILLER_33_110
*1093 FILLER_33_113
*1094 FILLER_33_122
*1095 FILLER_33_134
*1096 FILLER_33_146
*1097 FILLER_33_15
*1098 FILLER_33_158
*1099 FILLER_33_166
*1100 FILLER_33_169
*1101 FILLER_33_181
*1102 FILLER_33_193
*1103 FILLER_33_205
*1104 FILLER_33_21
*1105 FILLER_33_217
*1106 FILLER_33_223
*1107 FILLER_33_225
*1108 FILLER_33_237
*1109 FILLER_33_249
*1110 FILLER_33_261
*1111 FILLER_33_273
*1112 FILLER_33_279
*1113 FILLER_33_28
*1114 FILLER_33_281
*1115 FILLER_33_293
*1116 FILLER_33_3
*1117 FILLER_33_40
*1118 FILLER_33_52
*1119 FILLER_33_57
*1120 FILLER_33_62
*1121 FILLER_33_74
*1122 FILLER_33_86
*1123 FILLER_33_98
*1124 FILLER_34_106
*1125 FILLER_34_118
*1126 FILLER_34_130
*1127 FILLER_34_138
*1128 FILLER_34_141
*1129 FILLER_34_153
*1130 FILLER_34_165
*1131 FILLER_34_177
*1132 FILLER_34_189
*1133 FILLER_34_19
*1134 FILLER_34_195
*1135 FILLER_34_197
*1136 FILLER_34_209
*1137 FILLER_34_221
*1138 FILLER_34_233
*1139 FILLER_34_245
*1140 FILLER_34_251
*1141 FILLER_34_253
*1142 FILLER_34_265
*1143 FILLER_34_27
*1144 FILLER_34_277
*1145 FILLER_34_289
*1146 FILLER_34_29
*1147 FILLER_34_297
*1148 FILLER_34_3
*1149 FILLER_34_41
*1150 FILLER_34_53
*1151 FILLER_34_62
*1152 FILLER_34_74
*1153 FILLER_34_82
*1154 FILLER_34_85
*1155 FILLER_34_9
*1156 FILLER_34_94
*1157 FILLER_35_107
*1158 FILLER_35_111
*1159 FILLER_35_113
*1160 FILLER_35_125
*1161 FILLER_35_137
*1162 FILLER_35_149
*1163 FILLER_35_15
*1164 FILLER_35_161
*1165 FILLER_35_167
*1166 FILLER_35_169
*1167 FILLER_35_181
*1168 FILLER_35_193
*1169 FILLER_35_205
*1170 FILLER_35_217
*1171 FILLER_35_223
*1172 FILLER_35_225
*1173 FILLER_35_237
*1174 FILLER_35_249
*1175 FILLER_35_261
*1176 FILLER_35_27
*1177 FILLER_35_273
*1178 FILLER_35_279
*1179 FILLER_35_281
*1180 FILLER_35_293
*1181 FILLER_35_3
*1182 FILLER_35_40
*1183 FILLER_35_51
*1184 FILLER_35_55
*1185 FILLER_35_57
*1186 FILLER_35_72
*1187 FILLER_35_84
*1188 FILLER_35_96
*1189 FILLER_36_109
*1190 FILLER_36_121
*1191 FILLER_36_133
*1192 FILLER_36_139
*1193 FILLER_36_141
*1194 FILLER_36_15
*1195 FILLER_36_153
*1196 FILLER_36_165
*1197 FILLER_36_177
*1198 FILLER_36_189
*1199 FILLER_36_195
*1200 FILLER_36_197
*1201 FILLER_36_209
*1202 FILLER_36_221
*1203 FILLER_36_233
*1204 FILLER_36_245
*1205 FILLER_36_251
*1206 FILLER_36_253
*1207 FILLER_36_265
*1208 FILLER_36_27
*1209 FILLER_36_277
*1210 FILLER_36_289
*1211 FILLER_36_29
*1212 FILLER_36_297
*1213 FILLER_36_3
*1214 FILLER_36_41
*1215 FILLER_36_53
*1216 FILLER_36_65
*1217 FILLER_36_77
*1218 FILLER_36_83
*1219 FILLER_36_85
*1220 FILLER_36_97
*1221 FILLER_37_105
*1222 FILLER_37_111
*1223 FILLER_37_113
*1224 FILLER_37_125
*1225 FILLER_37_13
*1226 FILLER_37_137
*1227 FILLER_37_149
*1228 FILLER_37_161
*1229 FILLER_37_167
*1230 FILLER_37_169
*1231 FILLER_37_181
*1232 FILLER_37_193
*1233 FILLER_37_205
*1234 FILLER_37_217
*1235 FILLER_37_223
*1236 FILLER_37_225
*1237 FILLER_37_237
*1238 FILLER_37_249
*1239 FILLER_37_25
*1240 FILLER_37_261
*1241 FILLER_37_273
*1242 FILLER_37_279
*1243 FILLER_37_281
*1244 FILLER_37_293
*1245 FILLER_37_3
*1246 FILLER_37_37
*1247 FILLER_37_49
*1248 FILLER_37_55
*1249 FILLER_37_57
*1250 FILLER_37_69
*1251 FILLER_37_81
*1252 FILLER_37_93
*1253 FILLER_38_104
*1254 FILLER_38_116
*1255 FILLER_38_128
*1256 FILLER_38_141
*1257 FILLER_38_15
*1258 FILLER_38_153
*1259 FILLER_38_165
*1260 FILLER_38_177
*1261 FILLER_38_189
*1262 FILLER_38_195
*1263 FILLER_38_197
*1264 FILLER_38_209
*1265 FILLER_38_221
*1266 FILLER_38_233
*1267 FILLER_38_245
*1268 FILLER_38_251
*1269 FILLER_38_253
*1270 FILLER_38_265
*1271 FILLER_38_27
*1272 FILLER_38_277
*1273 FILLER_38_289
*1274 FILLER_38_29
*1275 FILLER_38_297
*1276 FILLER_38_3
*1277 FILLER_38_41
*1278 FILLER_38_53
*1279 FILLER_38_65
*1280 FILLER_38_77
*1281 FILLER_38_83
*1282 FILLER_38_85
*1283 FILLER_38_92
*1284 FILLER_39_105
*1285 FILLER_39_111
*1286 FILLER_39_113
*1287 FILLER_39_125
*1288 FILLER_39_137
*1289 FILLER_39_149
*1290 FILLER_39_15
*1291 FILLER_39_161
*1292 FILLER_39_167
*1293 FILLER_39_169
*1294 FILLER_39_181
*1295 FILLER_39_193
*1296 FILLER_39_205
*1297 FILLER_39_217
*1298 FILLER_39_223
*1299 FILLER_39_225
*1300 FILLER_39_237
*1301 FILLER_39_249
*1302 FILLER_39_261
*1303 FILLER_39_27
*1304 FILLER_39_273
*1305 FILLER_39_279
*1306 FILLER_39_281
*1307 FILLER_39_293
*1308 FILLER_39_3
*1309 FILLER_39_35
*1310 FILLER_39_44
*1311 FILLER_39_57
*1312 FILLER_39_69
*1313 FILLER_39_81
*1314 FILLER_39_93
*1315 FILLER_3_101
*1316 FILLER_3_110
*1317 FILLER_3_113
*1318 FILLER_3_132
*1319 FILLER_3_139
*1320 FILLER_3_151
*1321 FILLER_3_163
*1322 FILLER_3_167
*1323 FILLER_3_169
*1324 FILLER_3_181
*1325 FILLER_3_193
*1326 FILLER_3_205
*1327 FILLER_3_217
*1328 FILLER_3_223
*1329 FILLER_3_225
*1330 FILLER_3_237
*1331 FILLER_3_249
*1332 FILLER_3_25
*1333 FILLER_3_261
*1334 FILLER_3_273
*1335 FILLER_3_279
*1336 FILLER_3_281
*1337 FILLER_3_293
*1338 FILLER_3_3
*1339 FILLER_3_33
*1340 FILLER_3_51
*1341 FILLER_3_55
*1342 FILLER_3_57
*1343 FILLER_3_77
*1344 FILLER_3_97
*1345 FILLER_40_109
*1346 FILLER_40_121
*1347 FILLER_40_133
*1348 FILLER_40_139
*1349 FILLER_40_141
*1350 FILLER_40_15
*1351 FILLER_40_153
*1352 FILLER_40_165
*1353 FILLER_40_177
*1354 FILLER_40_189
*1355 FILLER_40_195
*1356 FILLER_40_197
*1357 FILLER_40_209
*1358 FILLER_40_221
*1359 FILLER_40_233
*1360 FILLER_40_245
*1361 FILLER_40_251
*1362 FILLER_40_253
*1363 FILLER_40_265
*1364 FILLER_40_27
*1365 FILLER_40_277
*1366 FILLER_40_289
*1367 FILLER_40_29
*1368 FILLER_40_297
*1369 FILLER_40_3
*1370 FILLER_40_41
*1371 FILLER_40_53
*1372 FILLER_40_65
*1373 FILLER_40_77
*1374 FILLER_40_83
*1375 FILLER_40_85
*1376 FILLER_40_97
*1377 FILLER_41_105
*1378 FILLER_41_111
*1379 FILLER_41_113
*1380 FILLER_41_125
*1381 FILLER_41_137
*1382 FILLER_41_149
*1383 FILLER_41_15
*1384 FILLER_41_161
*1385 FILLER_41_167
*1386 FILLER_41_169
*1387 FILLER_41_181
*1388 FILLER_41_193
*1389 FILLER_41_205
*1390 FILLER_41_217
*1391 FILLER_41_223
*1392 FILLER_41_225
*1393 FILLER_41_237
*1394 FILLER_41_249
*1395 FILLER_41_261
*1396 FILLER_41_27
*1397 FILLER_41_273
*1398 FILLER_41_279
*1399 FILLER_41_281
*1400 FILLER_41_293
*1401 FILLER_41_3
*1402 FILLER_41_39
*1403 FILLER_41_51
*1404 FILLER_41_55
*1405 FILLER_41_57
*1406 FILLER_41_69
*1407 FILLER_41_81
*1408 FILLER_41_93
*1409 FILLER_42_109
*1410 FILLER_42_121
*1411 FILLER_42_133
*1412 FILLER_42_139
*1413 FILLER_42_141
*1414 FILLER_42_15
*1415 FILLER_42_153
*1416 FILLER_42_165
*1417 FILLER_42_177
*1418 FILLER_42_189
*1419 FILLER_42_195
*1420 FILLER_42_197
*1421 FILLER_42_209
*1422 FILLER_42_221
*1423 FILLER_42_233
*1424 FILLER_42_245
*1425 FILLER_42_251
*1426 FILLER_42_253
*1427 FILLER_42_265
*1428 FILLER_42_27
*1429 FILLER_42_277
*1430 FILLER_42_289
*1431 FILLER_42_29
*1432 FILLER_42_297
*1433 FILLER_42_3
*1434 FILLER_42_41
*1435 FILLER_42_53
*1436 FILLER_42_65
*1437 FILLER_42_77
*1438 FILLER_42_83
*1439 FILLER_42_85
*1440 FILLER_42_97
*1441 FILLER_43_105
*1442 FILLER_43_111
*1443 FILLER_43_113
*1444 FILLER_43_125
*1445 FILLER_43_137
*1446 FILLER_43_149
*1447 FILLER_43_15
*1448 FILLER_43_161
*1449 FILLER_43_167
*1450 FILLER_43_169
*1451 FILLER_43_181
*1452 FILLER_43_193
*1453 FILLER_43_205
*1454 FILLER_43_217
*1455 FILLER_43_223
*1456 FILLER_43_225
*1457 FILLER_43_237
*1458 FILLER_43_249
*1459 FILLER_43_261
*1460 FILLER_43_27
*1461 FILLER_43_273
*1462 FILLER_43_279
*1463 FILLER_43_281
*1464 FILLER_43_293
*1465 FILLER_43_3
*1466 FILLER_43_39
*1467 FILLER_43_51
*1468 FILLER_43_55
*1469 FILLER_43_57
*1470 FILLER_43_69
*1471 FILLER_43_81
*1472 FILLER_43_93
*1473 FILLER_44_109
*1474 FILLER_44_121
*1475 FILLER_44_133
*1476 FILLER_44_139
*1477 FILLER_44_141
*1478 FILLER_44_15
*1479 FILLER_44_153
*1480 FILLER_44_165
*1481 FILLER_44_177
*1482 FILLER_44_189
*1483 FILLER_44_195
*1484 FILLER_44_197
*1485 FILLER_44_209
*1486 FILLER_44_221
*1487 FILLER_44_233
*1488 FILLER_44_245
*1489 FILLER_44_251
*1490 FILLER_44_253
*1491 FILLER_44_265
*1492 FILLER_44_27
*1493 FILLER_44_277
*1494 FILLER_44_289
*1495 FILLER_44_29
*1496 FILLER_44_297
*1497 FILLER_44_3
*1498 FILLER_44_41
*1499 FILLER_44_53
*1500 FILLER_44_65
*1501 FILLER_44_77
*1502 FILLER_44_83
*1503 FILLER_44_85
*1504 FILLER_44_97
*1505 FILLER_45_105
*1506 FILLER_45_111
*1507 FILLER_45_113
*1508 FILLER_45_125
*1509 FILLER_45_137
*1510 FILLER_45_149
*1511 FILLER_45_15
*1512 FILLER_45_161
*1513 FILLER_45_167
*1514 FILLER_45_169
*1515 FILLER_45_181
*1516 FILLER_45_193
*1517 FILLER_45_205
*1518 FILLER_45_217
*1519 FILLER_45_223
*1520 FILLER_45_225
*1521 FILLER_45_237
*1522 FILLER_45_249
*1523 FILLER_45_261
*1524 FILLER_45_27
*1525 FILLER_45_273
*1526 FILLER_45_279
*1527 FILLER_45_281
*1528 FILLER_45_293
*1529 FILLER_45_3
*1530 FILLER_45_39
*1531 FILLER_45_51
*1532 FILLER_45_55
*1533 FILLER_45_57
*1534 FILLER_45_69
*1535 FILLER_45_81
*1536 FILLER_45_93
*1537 FILLER_46_109
*1538 FILLER_46_121
*1539 FILLER_46_133
*1540 FILLER_46_139
*1541 FILLER_46_141
*1542 FILLER_46_15
*1543 FILLER_46_153
*1544 FILLER_46_165
*1545 FILLER_46_177
*1546 FILLER_46_189
*1547 FILLER_46_195
*1548 FILLER_46_197
*1549 FILLER_46_209
*1550 FILLER_46_221
*1551 FILLER_46_233
*1552 FILLER_46_245
*1553 FILLER_46_251
*1554 FILLER_46_253
*1555 FILLER_46_265
*1556 FILLER_46_27
*1557 FILLER_46_277
*1558 FILLER_46_289
*1559 FILLER_46_29
*1560 FILLER_46_297
*1561 FILLER_46_3
*1562 FILLER_46_41
*1563 FILLER_46_53
*1564 FILLER_46_65
*1565 FILLER_46_77
*1566 FILLER_46_83
*1567 FILLER_46_85
*1568 FILLER_46_97
*1569 FILLER_47_105
*1570 FILLER_47_111
*1571 FILLER_47_113
*1572 FILLER_47_125
*1573 FILLER_47_137
*1574 FILLER_47_149
*1575 FILLER_47_15
*1576 FILLER_47_161
*1577 FILLER_47_167
*1578 FILLER_47_169
*1579 FILLER_47_181
*1580 FILLER_47_193
*1581 FILLER_47_205
*1582 FILLER_47_217
*1583 FILLER_47_223
*1584 FILLER_47_225
*1585 FILLER_47_237
*1586 FILLER_47_249
*1587 FILLER_47_261
*1588 FILLER_47_27
*1589 FILLER_47_273
*1590 FILLER_47_279
*1591 FILLER_47_281
*1592 FILLER_47_293
*1593 FILLER_47_3
*1594 FILLER_47_39
*1595 FILLER_47_51
*1596 FILLER_47_55
*1597 FILLER_47_57
*1598 FILLER_47_69
*1599 FILLER_47_81
*1600 FILLER_47_93
*1601 FILLER_48_109
*1602 FILLER_48_121
*1603 FILLER_48_133
*1604 FILLER_48_139
*1605 FILLER_48_141
*1606 FILLER_48_15
*1607 FILLER_48_153
*1608 FILLER_48_165
*1609 FILLER_48_177
*1610 FILLER_48_189
*1611 FILLER_48_195
*1612 FILLER_48_197
*1613 FILLER_48_209
*1614 FILLER_48_221
*1615 FILLER_48_233
*1616 FILLER_48_245
*1617 FILLER_48_251
*1618 FILLER_48_253
*1619 FILLER_48_265
*1620 FILLER_48_27
*1621 FILLER_48_277
*1622 FILLER_48_289
*1623 FILLER_48_29
*1624 FILLER_48_297
*1625 FILLER_48_3
*1626 FILLER_48_41
*1627 FILLER_48_53
*1628 FILLER_48_65
*1629 FILLER_48_77
*1630 FILLER_48_83
*1631 FILLER_48_85
*1632 FILLER_48_97
*1633 FILLER_49_105
*1634 FILLER_49_111
*1635 FILLER_49_113
*1636 FILLER_49_125
*1637 FILLER_49_137
*1638 FILLER_49_149
*1639 FILLER_49_15
*1640 FILLER_49_161
*1641 FILLER_49_167
*1642 FILLER_49_169
*1643 FILLER_49_181
*1644 FILLER_49_193
*1645 FILLER_49_205
*1646 FILLER_49_217