*SPEF "ieee 1481-1999"
*DESIGN "xyz_peppergray_Potato1_top"
*DATE "11:11:11 Fri 11 11, 1111"
*VENDOR "OpenRCX"
*PROGRAM "Parallel Extraction"
*VERSION "1.0"
*DESIGN_FLOW "NAME_SCOPE LOCAL" "PIN_CAP NONE"
*DIVIDER /
*DELIMITER :
*BUS_DELIMITER []
*T_UNIT 1 NS
*C_UNIT 1 PF
*R_UNIT 1 OHM
*L_UNIT 1 HENRY

*NAME_MAP
*1 io_in[0]
*2 io_in[1]
*3 io_in[2]
*4 io_in[3]
*5 io_in[4]
*6 io_in[5]
*7 io_in[6]
*8 io_in[7]
*9 io_out[0]
*10 io_out[1]
*11 io_out[2]
*12 io_out[3]
*13 io_out[4]
*14 io_out[5]
*15 io_out[6]
*16 io_out[7]
*19 Control\[0\]
*20 Control\[1\]
*21 Control\[2\]
*22 Control\[3\]
*23 Control\[4\]
*24 Control\[5\]
*25 Control\[8\]
*26 Control_PC\[0\]
*27 Control_PC\[1\]
*28 IOWait
*29 Instruction\[0\]
*30 Instruction\[1\]
*31 Instruction\[2\]
*32 Instruction\[3\]
*33 LoopCounter\[0\]
*34 LoopCounter\[10\]
*35 LoopCounter\[11\]
*36 LoopCounter\[12\]
*37 LoopCounter\[13\]
*38 LoopCounter\[14\]
*39 LoopCounter\[15\]
*40 LoopCounter\[1\]
*41 LoopCounter\[2\]
*42 LoopCounter\[3\]
*43 LoopCounter\[4\]
*44 LoopCounter\[5\]
*45 LoopCounter\[6\]
*46 LoopCounter\[7\]
*47 LoopCounter\[8\]
*48 LoopCounter\[9\]
*49 LoopJmpMark\[0\]
*50 LoopJmpMark\[10\]
*51 LoopJmpMark\[11\]
*52 LoopJmpMark\[12\]
*53 LoopJmpMark\[13\]
*54 LoopJmpMark\[14\]
*55 LoopJmpMark\[15\]
*56 LoopJmpMark\[1\]
*57 LoopJmpMark\[2\]
*58 LoopJmpMark\[3\]
*59 LoopJmpMark\[4\]
*60 LoopJmpMark\[5\]
*61 LoopJmpMark\[6\]
*62 LoopJmpMark\[7\]
*63 LoopJmpMark\[8\]
*64 LoopJmpMark\[9\]
*65 ZeroFlag
*66 _000_
*67 _001_
*68 _002_
*69 _003_
*70 _004_
*71 _005_
*72 _006_
*73 _007_
*74 _008_
*75 _009_
*76 _010_
*77 _011_
*78 _012_
*79 _013_
*80 _014_
*81 _015_
*82 _016_
*83 _059_
*84 _060_
*85 _061_
*86 _062_
*87 _063_
*88 _064_
*89 _065_
*90 _066_
*91 _067_
*92 _068_
*93 _069_
*94 _070_
*95 _071_
*96 _072_
*97 _073_
*98 _074_
*99 _075_
*100 _076_
*101 _077_
*102 _078_
*103 _079_
*104 _080_
*105 _081_
*106 _082_
*107 _083_
*108 _084_
*109 _085_
*110 _086_
*111 _087_
*112 _088_
*113 _089_
*114 _090_
*115 _091_
*116 _092_
*117 _093_
*118 _094_
*119 _095_
*120 _096_
*121 _097_
*122 _098_
*123 _099_
*124 _100_
*125 _101_
*126 _102_
*127 _103_
*128 _104_
*129 _105_
*130 _106_
*131 _107_
*132 _108_
*133 _109_
*134 _110_
*135 _111_
*136 _112_
*137 _113_
*138 _114_
*139 _115_
*140 _116_
*141 _117_
*142 _118_
*143 _119_
*144 _120_
*145 _121_
*146 _122_
*147 _123_
*148 _124_
*149 _125_
*150 _126_
*151 _127_
*152 _128_
*153 _129_
*154 _130_
*155 _131_
*156 _132_
*157 _133_
*158 _134_
*159 _135_
*160 _136_
*161 _137_
*162 _138_
*163 _139_
*164 _140_
*165 _141_
*166 _142_
*167 _143_
*168 _144_
*169 _145_
*170 _146_
*171 _147_
*172 _148_
*173 _149_
*174 _150_
*175 _151_
*176 _152_
*177 _153_
*178 _154_
*179 _155_
*180 _156_
*181 _157_
*182 _158_
*183 _159_
*184 _160_
*185 _161_
*186 _162_
*187 _163_
*188 _164_
*189 _165_
*190 _166_
*191 _167_
*192 _168_
*193 _169_
*194 _170_
*195 _171_
*196 _172_
*197 _173_
*198 _174_
*199 _175_
*200 _176_
*201 _177_
*202 _178_
*203 _179_
*204 _180_
*205 _181_
*206 _182_
*207 _183_
*208 _184_
*209 _185_
*210 _186_
*211 _187_
*212 _188_
*213 _189_
*214 _190_
*215 _191_
*216 _192_
*217 _193_
*218 _194_
*219 _195_
*220 _196_
*221 _197_
*222 _198_
*223 _199_
*224 _200_
*225 _201_
*226 _202_
*227 _203_
*228 _204_
*229 _205_
*230 _206_
*231 _207_
*232 _208_
*233 _209_
*234 _210_
*235 _211_
*236 _212_
*237 _213_
*238 clknet_0__210_
*239 clknet_0__211_
*240 clknet_0__212_
*241 clknet_0__213_
*242 clknet_0_io_in[0]
*243 clknet_1_0__leaf__210_
*244 clknet_1_0__leaf__211_
*245 clknet_1_0__leaf__212_
*246 clknet_1_0__leaf__213_
*247 clknet_1_0__leaf_io_in[0]
*248 clknet_1_1__leaf__210_
*249 clknet_1_1__leaf__211_
*250 clknet_1_1__leaf__212_
*251 clknet_1_1__leaf__213_
*252 clknet_1_1__leaf_io_in[0]
*253 net1
*254 net10
*255 net11
*256 net12
*257 net13
*258 net14
*259 net15
*260 net16
*261 net17
*262 net18
*263 net19
*264 net2
*265 net20
*266 net21
*267 net22
*268 net23
*269 net24
*270 net25
*271 net26
*272 net27
*273 net28
*274 net29
*275 net3
*276 net30
*277 net31
*278 net32
*279 net33
*280 net34
*281 net35
*282 net36
*283 net37
*284 net38
*285 net39
*286 net4
*287 net40
*288 net41
*289 net42
*290 net43
*291 net44
*292 net45
*293 net46
*294 net47
*295 net48
*296 net49
*297 net5
*298 net50
*299 net51
*300 net52
*301 net53
*302 net54
*303 net55
*304 net56
*305 net6
*306 net7
*307 net8
*308 net9
*309 reverse
*310 skipCmd
*311 FILLER_0_109
*312 FILLER_0_113
*313 FILLER_0_125
*314 FILLER_0_137
*315 FILLER_0_141
*316 FILLER_0_15
*317 FILLER_0_153
*318 FILLER_0_165
*319 FILLER_0_169
*320 FILLER_0_181
*321 FILLER_0_193
*322 FILLER_0_197
*323 FILLER_0_209
*324 FILLER_0_221
*325 FILLER_0_225
*326 FILLER_0_237
*327 FILLER_0_249
*328 FILLER_0_253
*329 FILLER_0_265
*330 FILLER_0_27
*331 FILLER_0_277
*332 FILLER_0_281
*333 FILLER_0_29
*334 FILLER_0_293
*335 FILLER_0_3
*336 FILLER_0_41
*337 FILLER_0_53
*338 FILLER_0_57
*339 FILLER_0_69
*340 FILLER_0_81
*341 FILLER_0_85
*342 FILLER_0_97
*343 FILLER_10_109
*344 FILLER_10_121
*345 FILLER_10_133
*346 FILLER_10_139
*347 FILLER_10_141
*348 FILLER_10_153
*349 FILLER_10_165
*350 FILLER_10_177
*351 FILLER_10_189
*352 FILLER_10_195
*353 FILLER_10_197
*354 FILLER_10_209
*355 FILLER_10_221
*356 FILLER_10_233
*357 FILLER_10_245
*358 FILLER_10_25
*359 FILLER_10_251
*360 FILLER_10_253
*361 FILLER_10_265
*362 FILLER_10_277
*363 FILLER_10_289
*364 FILLER_10_29
*365 FILLER_10_297
*366 FILLER_10_3
*367 FILLER_10_38
*368 FILLER_10_64
*369 FILLER_10_70
*370 FILLER_10_78
*371 FILLER_10_85
*372 FILLER_10_97
*373 FILLER_11_110
*374 FILLER_11_113
*375 FILLER_11_12
*376 FILLER_11_125
*377 FILLER_11_137
*378 FILLER_11_149
*379 FILLER_11_161
*380 FILLER_11_167
*381 FILLER_11_169
*382 FILLER_11_181
*383 FILLER_11_193
*384 FILLER_11_205
*385 FILLER_11_217
*386 FILLER_11_223
*387 FILLER_11_225
*388 FILLER_11_237
*389 FILLER_11_249
*390 FILLER_11_261
*391 FILLER_11_273
*392 FILLER_11_279
*393 FILLER_11_281
*394 FILLER_11_293
*395 FILLER_11_3
*396 FILLER_11_38
*397 FILLER_11_51
*398 FILLER_11_55
*399 FILLER_11_57
*400 FILLER_11_61
*401 FILLER_11_69
*402 FILLER_11_73
*403 FILLER_11_81
*404 FILLER_11_92
*405 FILLER_11_96
*406 FILLER_12_106
*407 FILLER_12_129
*408 FILLER_12_136
*409 FILLER_12_141
*410 FILLER_12_153
*411 FILLER_12_165
*412 FILLER_12_177
*413 FILLER_12_189
*414 FILLER_12_195
*415 FILLER_12_197
*416 FILLER_12_209
*417 FILLER_12_221
*418 FILLER_12_233
*419 FILLER_12_245
*420 FILLER_12_25
*421 FILLER_12_251
*422 FILLER_12_253
*423 FILLER_12_265
*424 FILLER_12_277
*425 FILLER_12_289
*426 FILLER_12_29
*427 FILLER_12_297
*428 FILLER_12_3
*429 FILLER_12_34
*430 FILLER_12_41
*431 FILLER_12_65
*432 FILLER_12_77
*433 FILLER_12_83
*434 FILLER_12_85
*435 FILLER_12_98
*436 FILLER_13_110
*437 FILLER_13_113
*438 FILLER_13_118
*439 FILLER_13_13
*440 FILLER_13_130
*441 FILLER_13_142
*442 FILLER_13_154
*443 FILLER_13_166
*444 FILLER_13_169
*445 FILLER_13_181
*446 FILLER_13_193
*447 FILLER_13_205
*448 FILLER_13_217
*449 FILLER_13_223
*450 FILLER_13_225
*451 FILLER_13_237
*452 FILLER_13_249
*453 FILLER_13_261
*454 FILLER_13_273
*455 FILLER_13_279
*456 FILLER_13_281
*457 FILLER_13_293
*458 FILLER_13_3
*459 FILLER_13_37
*460 FILLER_13_50
*461 FILLER_13_57
*462 FILLER_13_66
*463 FILLER_13_70
*464 FILLER_13_74
*465 FILLER_13_87
*466 FILLER_13_97
*467 FILLER_14_105
*468 FILLER_14_111
*469 FILLER_14_121
*470 FILLER_14_131
*471 FILLER_14_139
*472 FILLER_14_141
*473 FILLER_14_153
*474 FILLER_14_165
*475 FILLER_14_177
*476 FILLER_14_189
*477 FILLER_14_195
*478 FILLER_14_197
*479 FILLER_14_209
*480 FILLER_14_22
*481 FILLER_14_221
*482 FILLER_14_233
*483 FILLER_14_245
*484 FILLER_14_251
*485 FILLER_14_253
*486 FILLER_14_265
*487 FILLER_14_277
*488 FILLER_14_289
*489 FILLER_14_29
*490 FILLER_14_297
*491 FILLER_14_3
*492 FILLER_14_34
*493 FILLER_14_41
*494 FILLER_14_48
*495 FILLER_14_56
*496 FILLER_14_64
*497 FILLER_14_76
*498 FILLER_14_8
*499 FILLER_14_80
*500 FILLER_14_85
*501 FILLER_14_91
*502 FILLER_14_97
*503 FILLER_15_106
*504 FILLER_15_113
*505 FILLER_15_128
*506 FILLER_15_140
*507 FILLER_15_152
*508 FILLER_15_164
*509 FILLER_15_169
*510 FILLER_15_181
*511 FILLER_15_19
*512 FILLER_15_193
*513 FILLER_15_205
*514 FILLER_15_217
*515 FILLER_15_223
*516 FILLER_15_225
*517 FILLER_15_237
*518 FILLER_15_249
*519 FILLER_15_26
*520 FILLER_15_261
*521 FILLER_15_273
*522 FILLER_15_279
*523 FILLER_15_281
*524 FILLER_15_293
*525 FILLER_15_3
*526 FILLER_15_54
*527 FILLER_15_57
*528 FILLER_15_62
*529 FILLER_15_73
*530 FILLER_15_80
*531 FILLER_15_88
*532 FILLER_15_9
*533 FILLER_15_96
*534 FILLER_16_100
*535 FILLER_16_121
*536 FILLER_16_130
*537 FILLER_16_138
*538 FILLER_16_141
*539 FILLER_16_153
*540 FILLER_16_165
*541 FILLER_16_177
*542 FILLER_16_189
*543 FILLER_16_195
*544 FILLER_16_197
*545 FILLER_16_209
*546 FILLER_16_221
*547 FILLER_16_233
*548 FILLER_16_245
*549 FILLER_16_251
*550 FILLER_16_253
*551 FILLER_16_26
*552 FILLER_16_265
*553 FILLER_16_277
*554 FILLER_16_289
*555 FILLER_16_29
*556 FILLER_16_297
*557 FILLER_16_3
*558 FILLER_16_41
*559 FILLER_16_54
*560 FILLER_16_65
*561 FILLER_16_73
*562 FILLER_16_81
*563 FILLER_16_85
*564 FILLER_16_96
*565 FILLER_17_102
*566 FILLER_17_110
*567 FILLER_17_113
*568 FILLER_17_118
*569 FILLER_17_130
*570 FILLER_17_142
*571 FILLER_17_154
*572 FILLER_17_166
*573 FILLER_17_169
*574 FILLER_17_181
*575 FILLER_17_193
*576 FILLER_17_205
*577 FILLER_17_217
*578 FILLER_17_223
*579 FILLER_17_225
*580 FILLER_17_237
*581 FILLER_17_249
*582 FILLER_17_26
*583 FILLER_17_261
*584 FILLER_17_273
*585 FILLER_17_279
*586 FILLER_17_281
*587 FILLER_17_293
*588 FILLER_17_3
*589 FILLER_17_50
*590 FILLER_17_57
*591 FILLER_17_63
*592 FILLER_17_68
*593 FILLER_17_78
*594 FILLER_18_126
*595 FILLER_18_138
*596 FILLER_18_141
*597 FILLER_18_153
*598 FILLER_18_165
*599 FILLER_18_177
*600 FILLER_18_189
*601 FILLER_18_195
*602 FILLER_18_197
*603 FILLER_18_209
*604 FILLER_18_221
*605 FILLER_18_233
*606 FILLER_18_245
*607 FILLER_18_251
*608 FILLER_18_253
*609 FILLER_18_26
*610 FILLER_18_265
*611 FILLER_18_277
*612 FILLER_18_289
*613 FILLER_18_29
*614 FILLER_18_297
*615 FILLER_18_3
*616 FILLER_18_36
*617 FILLER_18_60
*618 FILLER_18_68
*619 FILLER_18_74
*620 FILLER_18_82
*621 FILLER_18_85
*622 FILLER_18_89
*623 FILLER_18_97
*624 FILLER_19_10
*625 FILLER_19_103
*626 FILLER_19_110
*627 FILLER_19_113
*628 FILLER_19_125
*629 FILLER_19_137
*630 FILLER_19_149
*631 FILLER_19_161
*632 FILLER_19_167
*633 FILLER_19_169
*634 FILLER_19_17
*635 FILLER_19_181
*636 FILLER_19_193
*637 FILLER_19_205
*638 FILLER_19_217
*639 FILLER_19_223
*640 FILLER_19_225
*641 FILLER_19_237
*642 FILLER_19_249
*643 FILLER_19_261
*644 FILLER_19_273
*645 FILLER_19_279
*646 FILLER_19_281
*647 FILLER_19_293
*648 FILLER_19_3
*649 FILLER_19_41
*650 FILLER_19_49
*651 FILLER_19_53
*652 FILLER_19_57
*653 FILLER_19_67
*654 FILLER_19_78
*655 FILLER_19_86
*656 FILLER_19_94
*657 FILLER_1_105
*658 FILLER_1_111
*659 FILLER_1_113
*660 FILLER_1_125
*661 FILLER_1_137
*662 FILLER_1_149
*663 FILLER_1_15
*664 FILLER_1_161
*665 FILLER_1_167
*666 FILLER_1_169
*667 FILLER_1_181
*668 FILLER_1_193
*669 FILLER_1_205
*670 FILLER_1_217
*671 FILLER_1_223
*672 FILLER_1_225
*673 FILLER_1_237
*674 FILLER_1_249
*675 FILLER_1_261
*676 FILLER_1_27
*677 FILLER_1_273
*678 FILLER_1_279
*679 FILLER_1_281
*680 FILLER_1_293
*681 FILLER_1_3
*682 FILLER_1_39
*683 FILLER_1_51
*684 FILLER_1_55
*685 FILLER_1_57
*686 FILLER_1_69
*687 FILLER_1_81
*688 FILLER_1_93
*689 FILLER_20_103
*690 FILLER_20_127
*691 FILLER_20_139
*692 FILLER_20_141
*693 FILLER_20_153
*694 FILLER_20_165
*695 FILLER_20_177
*696 FILLER_20_189
*697 FILLER_20_195
*698 FILLER_20_197
*699 FILLER_20_209
*700 FILLER_20_221
*701 FILLER_20_233
*702 FILLER_20_245
*703 FILLER_20_251
*704 FILLER_20_253
*705 FILLER_20_26
*706 FILLER_20_265
*707 FILLER_20_277
*708 FILLER_20_289
*709 FILLER_20_29
*710 FILLER_20_297
*711 FILLER_20_3
*712 FILLER_20_57
*713 FILLER_20_69
*714 FILLER_20_76
*715 FILLER_20_85
*716 FILLER_20_97
*717 FILLER_21_106
*718 FILLER_21_113
*719 FILLER_21_118
*720 FILLER_21_130
*721 FILLER_21_142
*722 FILLER_21_154
*723 FILLER_21_166
*724 FILLER_21_169
*725 FILLER_21_181
*726 FILLER_21_193
*727 FILLER_21_205
*728 FILLER_21_217
*729 FILLER_21_223
*730 FILLER_21_225
*731 FILLER_21_237
*732 FILLER_21_249
*733 FILLER_21_261
*734 FILLER_21_273
*735 FILLER_21_279
*736 FILLER_21_281
*737 FILLER_21_293
*738 FILLER_21_3
*739 FILLER_21_33
*740 FILLER_21_46
*741 FILLER_21_53
*742 FILLER_21_57
*743 FILLER_21_66
*744 FILLER_21_73
*745 FILLER_21_9
*746 FILLER_21_97
*747 FILLER_22_103
*748 FILLER_22_109
*749 FILLER_22_131
*750 FILLER_22_139
*751 FILLER_22_141
*752 FILLER_22_153
*753 FILLER_22_165
*754 FILLER_22_177
*755 FILLER_22_189
*756 FILLER_22_195
*757 FILLER_22_197
*758 FILLER_22_209
*759 FILLER_22_221
*760 FILLER_22_233
*761 FILLER_22_245
*762 FILLER_22_25
*763 FILLER_22_251
*764 FILLER_22_253
*765 FILLER_22_265
*766 FILLER_22_277
*767 FILLER_22_289
*768 FILLER_22_29
*769 FILLER_22_297
*770 FILLER_22_3
*771 FILLER_22_35
*772 FILLER_22_43
*773 FILLER_22_47
*774 FILLER_22_51
*775 FILLER_22_60
*776 FILLER_22_64
*777 FILLER_22_68
*778 FILLER_22_75
*779 FILLER_22_82
*780 FILLER_22_85
*781 FILLER_22_90
*782 FILLER_23_100
*783 FILLER_23_109
*784 FILLER_23_113
*785 FILLER_23_136
*786 FILLER_23_148
*787 FILLER_23_160
*788 FILLER_23_169
*789 FILLER_23_181
*790 FILLER_23_193
*791 FILLER_23_205
*792 FILLER_23_217
*793 FILLER_23_223
*794 FILLER_23_225
*795 FILLER_23_237
*796 FILLER_23_249
*797 FILLER_23_26
*798 FILLER_23_261
*799 FILLER_23_273
*800 FILLER_23_279
*801 FILLER_23_281
*802 FILLER_23_293
*803 FILLER_23_3
*804 FILLER_23_50
*805 FILLER_23_57
*806 FILLER_23_68
*807 FILLER_23_76
*808 FILLER_24_108
*809 FILLER_24_119
*810 FILLER_24_131
*811 FILLER_24_139
*812 FILLER_24_141
*813 FILLER_24_153
*814 FILLER_24_165
*815 FILLER_24_17
*816 FILLER_24_177
*817 FILLER_24_189
*818 FILLER_24_195
*819 FILLER_24_197
*820 FILLER_24_209
*821 FILLER_24_221
*822 FILLER_24_233
*823 FILLER_24_245
*824 FILLER_24_251
*825 FILLER_24_253
*826 FILLER_24_26
*827 FILLER_24_265
*828 FILLER_24_277
*829 FILLER_24_289
*830 FILLER_24_29
*831 FILLER_24_297
*832 FILLER_24_3
*833 FILLER_24_51
*834 FILLER_24_63
*835 FILLER_24_73
*836 FILLER_24_8
*837 FILLER_24_81
*838 FILLER_24_85
*839 FILLER_24_91
*840 FILLER_24_99
*841 FILLER_25_102
*842 FILLER_25_109
*843 FILLER_25_113
*844 FILLER_25_117
*845 FILLER_25_125
*846 FILLER_25_137
*847 FILLER_25_149
*848 FILLER_25_15
*849 FILLER_25_161
*850 FILLER_25_167
*851 FILLER_25_169
*852 FILLER_25_181
*853 FILLER_25_193
*854 FILLER_25_205
*855 FILLER_25_217
*856 FILLER_25_223
*857 FILLER_25_225
*858 FILLER_25_237
*859 FILLER_25_249
*860 FILLER_25_261
*861 FILLER_25_273
*862 FILLER_25_279
*863 FILLER_25_281
*864 FILLER_25_293
*865 FILLER_25_3
*866 FILLER_25_39
*867 FILLER_25_50
*868 FILLER_25_57
*869 FILLER_25_66
*870 FILLER_25_72
*871 FILLER_25_79
*872 FILLER_25_8
*873 FILLER_25_89
*874 FILLER_26_107
*875 FILLER_26_118
*876 FILLER_26_124
*877 FILLER_26_132
*878 FILLER_26_141
*879 FILLER_26_153
*880 FILLER_26_165
*881 FILLER_26_177
*882 FILLER_26_189
*883 FILLER_26_195
*884 FILLER_26_197
*885 FILLER_26_209
*886 FILLER_26_221
*887 FILLER_26_233
*888 FILLER_26_245
*889 FILLER_26_251
*890 FILLER_26_253
*891 FILLER_26_26
*892 FILLER_26_265
*893 FILLER_26_277
*894 FILLER_26_289
*895 FILLER_26_29
*896 FILLER_26_297
*897 FILLER_26_3
*898 FILLER_26_35
*899 FILLER_26_42
*900 FILLER_26_48
*901 FILLER_26_54
*902 FILLER_26_65
*903 FILLER_26_72
*904 FILLER_26_82
*905 FILLER_26_85
*906 FILLER_27_101
*907 FILLER_27_109
*908 FILLER_27_113
*909 FILLER_27_118
*910 FILLER_27_128
*911 FILLER_27_140
*912 FILLER_27_152
*913 FILLER_27_164
*914 FILLER_27_169
*915 FILLER_27_181
*916 FILLER_27_193
*917 FILLER_27_205
*918 FILLER_27_217
*919 FILLER_27_223
*920 FILLER_27_225
*921 FILLER_27_237
*922 FILLER_27_249
*923 FILLER_27_261
*924 FILLER_27_273
*925 FILLER_27_279
*926 FILLER_27_281
*927 FILLER_27_293
*928 FILLER_27_3
*929 FILLER_27_30
*930 FILLER_27_44
*931 FILLER_27_48
*932 FILLER_27_54
*933 FILLER_27_57
*934 FILLER_27_69
*935 FILLER_27_93
*936 FILLER_28_106
*937 FILLER_28_125
*938 FILLER_28_135
*939 FILLER_28_139
*940 FILLER_28_141
*941 FILLER_28_153
*942 FILLER_28_165
*943 FILLER_28_177
*944 FILLER_28_189
*945 FILLER_28_195
*946 FILLER_28_197
*947 FILLER_28_209
*948 FILLER_28_221
*949 FILLER_28_233
*950 FILLER_28_245
*951 FILLER_28_25
*952 FILLER_28_251
*953 FILLER_28_253
*954 FILLER_28_265
*955 FILLER_28_277
*956 FILLER_28_289
*957 FILLER_28_29
*958 FILLER_28_297
*959 FILLER_28_3
*960 FILLER_28_36
*961 FILLER_28_42
*962 FILLER_28_48
*963 FILLER_28_52
*964 FILLER_28_58
*965 FILLER_28_71
*966 FILLER_28_82
*967 FILLER_28_85
*968 FILLER_28_93
*969 FILLER_29_103
*970 FILLER_29_111
*971 FILLER_29_113
*972 FILLER_29_124
*973 FILLER_29_135
*974 FILLER_29_142
*975 FILLER_29_154
*976 FILLER_29_166
*977 FILLER_29_169
*978 FILLER_29_181
*979 FILLER_29_193
*980 FILLER_29_205
*981 FILLER_29_217
*982 FILLER_29_223
*983 FILLER_29_225
*984 FILLER_29_237
*985 FILLER_29_249
*986 FILLER_29_261
*987 FILLER_29_273
*988 FILLER_29_279
*989 FILLER_29_28
*990 FILLER_29_281
*991 FILLER_29_293
*992 FILLER_29_3
*993 FILLER_29_53
*994 FILLER_29_57
*995 FILLER_29_79
*996 FILLER_2_109
*997 FILLER_2_121
*998 FILLER_2_133
*999 FILLER_2_139
*1000 FILLER_2_141
*1001 FILLER_2_15
*1002 FILLER_2_153
*1003 FILLER_2_165
*1004 FILLER_2_177
*1005 FILLER_2_189
*1006 FILLER_2_195
*1007 FILLER_2_197
*1008 FILLER_2_209
*1009 FILLER_2_221
*1010 FILLER_2_233
*1011 FILLER_2_245
*1012 FILLER_2_251
*1013 FILLER_2_253
*1014 FILLER_2_265
*1015 FILLER_2_27
*1016 FILLER_2_277
*1017 FILLER_2_289
*1018 FILLER_2_29
*1019 FILLER_2_297
*1020 FILLER_2_3
*1021 FILLER_2_41
*1022 FILLER_2_53
*1023 FILLER_2_65
*1024 FILLER_2_77
*1025 FILLER_2_83
*1026 FILLER_2_85
*1027 FILLER_2_97
*1028 FILLER_30_105
*1029 FILLER_30_109
*1030 FILLER_30_127
*1031 FILLER_30_139
*1032 FILLER_30_141
*1033 FILLER_30_153
*1034 FILLER_30_165
*1035 FILLER_30_177
*1036 FILLER_30_189
*1037 FILLER_30_195
*1038 FILLER_30_197
*1039 FILLER_30_209
*1040 FILLER_30_221
*1041 FILLER_30_233
*1042 FILLER_30_245
*1043 FILLER_30_25
*1044 FILLER_30_251
*1045 FILLER_30_253
*1046 FILLER_30_265
*1047 FILLER_30_277
*1048 FILLER_30_289
*1049 FILLER_30_29
*1050 FILLER_30_297
*1051 FILLER_30_3
*1052 FILLER_30_52
*1053 FILLER_30_60
*1054 FILLER_30_82
*1055 FILLER_30_85
*1056 FILLER_30_91
*1057 FILLER_30_98
*1058 FILLER_31_102
*1059 FILLER_31_109
*1060 FILLER_31_113
*1061 FILLER_31_117
*1062 FILLER_31_124
*1063 FILLER_31_13
*1064 FILLER_31_136
*1065 FILLER_31_148
*1066 FILLER_31_160
*1067 FILLER_31_169
*1068 FILLER_31_181
*1069 FILLER_31_193
*1070 FILLER_31_205
*1071 FILLER_31_217
*1072 FILLER_31_223
*1073 FILLER_31_225
*1074 FILLER_31_23
*1075 FILLER_31_237
*1076 FILLER_31_249
*1077 FILLER_31_261
*1078 FILLER_31_273
*1079 FILLER_31_279
*1080 FILLER_31_281
*1081 FILLER_31_293
*1082 FILLER_31_3
*1083 FILLER_31_31
*1084 FILLER_31_42
*1085 FILLER_31_53
*1086 FILLER_31_57
*1087 FILLER_31_63
*1088 FILLER_31_67
*1089 FILLER_31_88
*1090 FILLER_31_94
*1091 FILLER_32_111
*1092 FILLER_32_121
*1093 FILLER_32_133
*1094 FILLER_32_139
*1095 FILLER_32_14
*1096 FILLER_32_141
*1097 FILLER_32_153
*1098 FILLER_32_165
*1099 FILLER_32_177
*1100 FILLER_32_189
*1101 FILLER_32_195
*1102 FILLER_32_197
*1103 FILLER_32_209
*1104 FILLER_32_221
*1105 FILLER_32_233
*1106 FILLER_32_245
*1107 FILLER_32_251
*1108 FILLER_32_253
*1109 FILLER_32_26
*1110 FILLER_32_265
*1111 FILLER_32_277
*1112 FILLER_32_289
*1113 FILLER_32_29
*1114 FILLER_32_297
*1115 FILLER_32_3
*1116 FILLER_32_41
*1117 FILLER_32_65
*1118 FILLER_32_75
*1119 FILLER_32_82
*1120 FILLER_32_85
*1121 FILLER_32_94
*1122 FILLER_33_10
*1123 FILLER_33_105
*1124 FILLER_33_111
*1125 FILLER_33_113
*1126 FILLER_33_118
*1127 FILLER_33_130
*1128 FILLER_33_142
*1129 FILLER_33_154
*1130 FILLER_33_166
*1131 FILLER_33_169
*1132 FILLER_33_181
*1133 FILLER_33_193
*1134 FILLER_33_205
*1135 FILLER_33_217
*1136 FILLER_33_22
*1137 FILLER_33_223
*1138 FILLER_33_225
*1139 FILLER_33_237
*1140 FILLER_33_249
*1141 FILLER_33_26
*1142 FILLER_33_261
*1143 FILLER_33_273
*1144 FILLER_33_279
*1145 FILLER_33_281
*1146 FILLER_33_293
*1147 FILLER_33_3
*1148 FILLER_33_33
*1149 FILLER_33_46
*1150 FILLER_33_50
*1151 FILLER_33_54
*1152 FILLER_33_57
*1153 FILLER_33_66
*1154 FILLER_33_72
*1155 FILLER_33_94
*1156 FILLER_34_112
*1157 FILLER_34_124
*1158 FILLER_34_13
*1159 FILLER_34_136
*1160 FILLER_34_141
*1161 FILLER_34_153
*1162 FILLER_34_165
*1163 FILLER_34_177
*1164 FILLER_34_189
*1165 FILLER_34_195
*1166 FILLER_34_197
*1167 FILLER_34_209
*1168 FILLER_34_21
*1169 FILLER_34_221
*1170 FILLER_34_233
*1171 FILLER_34_245
*1172 FILLER_34_251
*1173 FILLER_34_253
*1174 FILLER_34_26
*1175 FILLER_34_265
*1176 FILLER_34_277
*1177 FILLER_34_289
*1178 FILLER_34_29
*1179 FILLER_34_297
*1180 FILLER_34_3
*1181 FILLER_34_52
*1182 FILLER_34_67
*1183 FILLER_34_73
*1184 FILLER_34_77
*1185 FILLER_34_83
*1186 FILLER_34_85
*1187 FILLER_34_97
*1188 FILLER_35_108
*1189 FILLER_35_113
*1190 FILLER_35_121
*1191 FILLER_35_133
*1192 FILLER_35_145
*1193 FILLER_35_157
*1194 FILLER_35_165
*1195 FILLER_35_169
*1196 FILLER_35_181
*1197 FILLER_35_193
*1198 FILLER_35_205
*1199 FILLER_35_217
*1200 FILLER_35_223
*1201 FILLER_35_225
*1202 FILLER_35_237
*1203 FILLER_35_249
*1204 FILLER_35_261
*1205 FILLER_35_273
*1206 FILLER_35_279
*1207 FILLER_35_28
*1208 FILLER_35_281
*1209 FILLER_35_293
*1210 FILLER_35_3
*1211 FILLER_35_36
*1212 FILLER_35_43
*1213 FILLER_35_54
*1214 FILLER_35_57
*1215 FILLER_35_65
*1216 FILLER_35_72
*1217 FILLER_35_76
*1218 FILLER_35_97
*1219 FILLER_36_115
*1220 FILLER_36_127
*1221 FILLER_36_139
*1222 FILLER_36_141
*1223 FILLER_36_15
*1224 FILLER_36_153
*1225 FILLER_36_165
*1226 FILLER_36_177
*1227 FILLER_36_189
*1228 FILLER_36_195
*1229 FILLER_36_197
*1230 FILLER_36_209
*1231 FILLER_36_221
*1232 FILLER_36_233
*1233 FILLER_36_245
*1234 FILLER_36_251
*1235 FILLER_36_253
*1236 FILLER_36_26
*1237 FILLER_36_265
*1238 FILLER_36_277
*1239 FILLER_36_289
*1240 FILLER_36_29
*1241 FILLER_36_297
*1242 FILLER_36_3
*1243 FILLER_36_41
*1244 FILLER_36_65
*1245 FILLER_36_74
*1246 FILLER_36_8
*1247 FILLER_36_81
*1248 FILLER_36_85
*1249 FILLER_36_96
*1250 FILLER_37_106
*1251 FILLER_37_113
*1252 FILLER_37_125
*1253 FILLER_37_137
*1254 FILLER_37_149
*1255 FILLER_37_161
*1256 FILLER_37_167
*1257 FILLER_37_169
*1258 FILLER_37_181
*1259 FILLER_37_193
*1260 FILLER_37_205
*1261 FILLER_37_217
*1262 FILLER_37_223
*1263 FILLER_37_225
*1264 FILLER_37_237
*1265 FILLER_37_249
*1266 FILLER_37_261
*1267 FILLER_37_273
*1268 FILLER_37_279
*1269 FILLER_37_28
*1270 FILLER_37_281
*1271 FILLER_37_293
*1272 FILLER_37_3
*1273 FILLER_37_40
*1274 FILLER_37_44
*1275 FILLER_37_54
*1276 FILLER_37_57
*1277 FILLER_37_68
*1278 FILLER_37_75
*1279 FILLER_37_82
*1280 FILLER_37_91
*1281 FILLER_38_107
*1282 FILLER_38_119
*1283 FILLER_38_131
*1284 FILLER_38_139
*1285 FILLER_38_141
*1286 FILLER_38_153
*1287 FILLER_38_165
*1288 FILLER_38_177
*1289 FILLER_38_189
*1290 FILLER_38_195
*1291 FILLER_38_197
*1292 FILLER_38_20
*1293 FILLER_38_209
*1294 FILLER_38_221
*1295 FILLER_38_233
*1296 FILLER_38_245
*1297 FILLER_38_251
*1298 FILLER_38_253
*1299 FILLER_38_265
*1300 FILLER_38_277
*1301 FILLER_38_289
*1302 FILLER_38_29
*1303 FILLER_38_297
*1304 FILLER_38_3
*1305 FILLER_38_52
*1306 FILLER_38_76
*1307 FILLER_38_8
*1308 FILLER_38_85
*1309 FILLER_39_101
*1310 FILLER_39_109
*1311 FILLER_39_113
*1312 FILLER_39_125
*1313 FILLER_39_137
*1314 FILLER_39_149
*1315 FILLER_39_161
*1316 FILLER_39_167
*1317 FILLER_39_169
*1318 FILLER_39_181
*1319 FILLER_39_193
*1320 FILLER_39_205
*1321 FILLER_39_217
*1322 FILLER_39_223
*1323 FILLER_39_225
*1324 FILLER_39_237
*1325 FILLER_39_249
*1326 FILLER_39_261
*1327 FILLER_39_273
*1328 FILLER_39_279
*1329 FILLER_39_28
*1330 FILLER_39_281
*1331 FILLER_39_293
*1332 FILLER_39_3
*1333 FILLER_39_54
*1334 FILLER_39_57
*1335 FILLER_39_65
*1336 FILLER_39_73
*1337 FILLER_39_94
*1338 FILLER_3_105
*1339 FILLER_3_111
*1340 FILLER_3_113
*1341 FILLER_3_125
*1342 FILLER_3_137
*1343 FILLER_3_149
*1344 FILLER_3_15
*1345 FILLER_3_161
*1346 FILLER_3_167
*1347 FILLER_3_169
*1348 FILLER_3_181
*1349 FILLER_3_193
*1350 FILLER_3_205
*1351 FILLER_3_217
*1352 FILLER_3_223
*1353 FILLER_3_225
*1354 FILLER_3_237
*1355 FILLER_3_249
*1356 FILLER_3_261
*1357 FILLER_3_27
*1358 FILLER_3_273
*1359 FILLER_3_279
*1360 FILLER_3_281
*1361 FILLER_3_293
*1362 FILLER_3_3
*1363 FILLER_3_39
*1364 FILLER_3_51
*1365 FILLER_3_55
*1366 FILLER_3_57
*1367 FILLER_3_69
*1368 FILLER_3_81
*1369 FILLER_3_93
*1370 FILLER_40_102
*1371 FILLER_40_114
*1372 FILLER_40_126
*1373 FILLER_40_138
*1374 FILLER_40_141
*1375 FILLER_40_153
*1376 FILLER_40_165
*1377 FILLER_40_177
*1378 FILLER_40_18
*1379 FILLER_40_189
*1380 FILLER_40_195
*1381 FILLER_40_197
*1382 FILLER_40_209
*1383 FILLER_40_22
*1384 FILLER_40_221
*1385 FILLER_40_233
*1386 FILLER_40_245
*1387 FILLER_40_251
*1388 FILLER_40_253
*1389 FILLER_40_26
*1390 FILLER_40_265
*1391 FILLER_40_277
*1392 FILLER_40_289
*1393 FILLER_40_29
*1394 FILLER_40_297
*1395 FILLER_40_3
*1396 FILLER_40_38
*1397 FILLER_40_46
*1398 FILLER_40_68
*1399 FILLER_40_77
*1400 FILLER_40_83
*1401 FILLER_40_85
*1402 FILLER_40_9
*1403 FILLER_40_90
*1404 FILLER_41_100
*1405 FILLER_41_113
*1406 FILLER_41_125
*1407 FILLER_41_137
*1408 FILLER_41_149
*1409 FILLER_41_161
*1410 FILLER_41_167
*1411 FILLER_41_169
*1412 FILLER_41_181
*1413 FILLER_41_193
*1414 FILLER_41_205
*1415 FILLER_41_217
*1416 FILLER_41_223
*1417 FILLER_41_225
*1418 FILLER_41_237
*1419 FILLER_41_249
*1420 FILLER_41_261
*1421 FILLER_41_273
*1422 FILLER_41_279
*1423 FILLER_41_281
*1424 FILLER_41_293
*1425 FILLER_41_3
*1426 FILLER_41_36
*1427 FILLER_41_51
*1428 FILLER_41_55
*1429 FILLER_41_57
*1430 FILLER_41_66
*1431 FILLER_41_74
*1432 FILLER_41_8
*1433 FILLER_41_81
*1434 FILLER_41_88
*1435 FILLER_42_104
*1436 FILLER_42_116
*1437 FILLER_42_128
*1438 FILLER_42_13
*1439 FILLER_42_141
*1440 FILLER_42_153
*1441 FILLER_42_165
*1442 FILLER_42_177
*1443 FILLER_42_189
*1444 FILLER_42_195
*1445 FILLER_42_197
*1446 FILLER_42_209
*1447 FILLER_42_221
*1448 FILLER_42_233
*1449 FILLER_42_245
*1450 FILLER_42_25
*1451 FILLER_42_251
*1452 FILLER_42_253
*1453 FILLER_42_265
*1454 FILLER_42_277
*1455 FILLER_42_289
*1456 FILLER_42_29
*1457 FILLER_42_297
*1458 FILLER_42_3
*1459 FILLER_42_39
*1460 FILLER_42_47
*1461 FILLER_42_54
*1462 FILLER_42_65
*1463 FILLER_42_82
*1464 FILLER_42_85
*1465 FILLER_42_92
*1466 FILLER_43_107
*1467 FILLER_43_111
*1468 FILLER_43_113
*1469 FILLER_43_125
*1470 FILLER_43_137
*1471 FILLER_43_149
*1472 FILLER_43_161
*1473 FILLER_43_167
*1474 FILLER_43_169
*1475 FILLER_43_181
*1476 FILLER_43_193
*1477 FILLER_43_205
*1478 FILLER_43_217
*1479 FILLER_43_223
*1480 FILLER_43_225
*1481 FILLER_43_237
*1482 FILLER_43_249
*1483 FILLER_43_261
*1484 FILLER_43_273
*1485 FILLER_43_279
*1486 FILLER_43_281
*1487 FILLER_43_293
*1488 FILLER_43_3
*1489 FILLER_43_30
*1490 FILLER_43_34
*1491 FILLER_43_38
*1492 FILLER_43_49
*1493 FILLER_43_55
*1494 FILLER_43_57
*1495 FILLER_43_62
*1496 FILLER_43_74
*1497 FILLER_43_83
*1498 FILLER_43_95
*1499 FILLER_44_109
*1500 FILLER_44_121
*1501 FILLER_44_13
*1502 FILLER_44_133
*1503 FILLER_44_139
*1504 FILLER_44_141
*1505 FILLER_44_153
*1506 FILLER_44_165
*1507 FILLER_44_177
*1508 FILLER_44_189
*1509 FILLER_44_195
*1510 FILLER_44_197
*1511 FILLER_44_20
*1512 FILLER_44_209
*1513 FILLER_44_221
*1514 FILLER_44_233
*1515 FILLER_44_245
*1516 FILLER_44_251
*1517 FILLER_44_253
*1518 FILLER_44_265
*1519 FILLER_44_277
*1520 FILLER_44_289
*1521 FILLER_44_29
*1522 FILLER_44_297
*1523 FILLER_44_3
*1524 FILLER_44_34
*1525 FILLER_44_42
*1526 FILLER_44_63
*1527 FILLER_44_74
*1528 FILLER_44_82
*1529 FILLER_44_85
*1530 FILLER_44_97
*1531 FILLER_45_11
*1532 FILLER_45_111
*1533 FILLER_45_113
*1534 FILLER_45_125
*1535 FILLER_45_137
*1536 FILLER_45_149
*1537 FILLER_45_15
*1538 FILLER_45_161
*1539 FILLER_45_167
*1540 FILLER_45_169
*1541 FILLER_45_181
*1542 FILLER_45_19
*1543 FILLER_45_193
*1544 FILLER_45_205
*1545 FILLER_45_217
*1546 FILLER_45_223
*1547 FILLER_45_225
*1548 FILLER_45_237
*1549 FILLER_45_249
*1550 FILLER_45_261
*1551 FILLER_45_273
*1552 FILLER_45_279
*1553 FILLER_45_281
*1554 FILLER_45_293
*1555 FILLER_45_3
*1556 FILLER_45_46
*1557 FILLER_45_53
*1558 FILLER_45_57
*1559 FILLER_45_65
*1560 FILLER_45_87
*1561 FILLER_45_99
*1562 FILLER_46_109
*1563 FILLER_46_121
*1564 FILLER_46_133
*1565 FILLER_46_139
*1566 FILLER_46_141
*1567 FILLER_46_153
*1568 FILLER_46_165
*1569 FILLER_46_177
*1570 FILLER_46_18
*1571 FILLER_46_189
*1572 FILLER_46_195
*1573 FILLER_46_197
*1574 FILLER_46_209
*1575 FILLER_46_221
*1576 FILLER_46_233
*1577 FILLER_46_245
*1578 FILLER_46_25
*1579 FILLER_46_251
*1580 FILLER_46_253
*1581 FILLER_46_265
*1582 FILLER_46_277
*1583 FILLER_46_289
*1584 FILLER_46_29
*1585 FILLER_46_297
*1586 FILLER_46_3
*1587 FILLER_46_33
*1588 FILLER_46_37
*1589 FILLER_46_43
*1590 FILLER_46_47
*1591 FILLER_46_54
*1592 FILLER_46_66
*1593 FILLER_46_71
*1594 FILLER_46_83
*1595 FILLER_46_85
*1596 FILLER_46_97
*1597 FILLER_47_105
*1598 FILLER_47_111
*1599 FILLER_47_113
*1600 FILLER_47_125
*1601 FILLER_47_137
*1602 FILLER_47_149
*1603 FILLER_47_161
*1604 FILLER_47_167
*1605 FILLER_47_169
*1606 FILLER_47_181
*1607 FILLER_47_193
*1608 FILLER_47_205
*1609 FILLER_47_217
*1610 FILLER_47_223
*1611 FILLER_47_225
*1612 FILLER_47_237
*1613 FILLER_47_249
*1614 FILLER_47_261
*1615 FILLER_47_273
*1616 FILLER_47_279
*1617 FILLER_47_281
*1618 FILLER_47_293
*1619 FILLER_47_3
*1620 FILLER_47_30
*1621 FILLER_47_42
*1622 FILLER_47_54
*1623 FILLER_47_57
*1624 FILLER_47_69
*1625 FILLER_47_81
*1626 FILLER_47_93
*1627 FILLER_48_109
*1628 FILLER_48_11
*1629 FILLER_48_121
*1630 FILLER_48_133
*1631 FILLER_48_139
*1632 FILLER_48_141
*1633 FILLER_48_153
*1634 FILLER_48_165
*1635 FILLER_48_177
*1636 FILLER_48_189
*1637 FILLER_48_195
*1638 FILLER_48_197
*1639 FILLER_48_209
*1640 FILLER_48_221
*1641 FILLER_48_23
*1642 FILLER_48_233
*1643 FILLER_48_245
*1644 FILLER_48_251
*1645 FILLER_48_253
*1646 FILLER_48_265
*1647 FILLER_48_27
*1648 FILLER_48_277
*1649 FILLER_48_289
*1650 FILLER_48_29
*1651 FILLER_48_297
*1652 FILLER_48_3
*1653 FILLER_48_41
*1654 FILLER_48_53
*1655 FILLER_48_65
*1656 FILLER_48_7
*1657 FILLER_48_77