*SPEF "ieee 1481-1999"
*DESIGN "yannickreiss_dot_op"
*DATE "11:11:11 Fri 11 11, 1111"
*VENDOR "OpenRCX"
*PROGRAM "Parallel Extraction"
*VERSION "1.0"
*DESIGN_FLOW "NAME_SCOPE LOCAL" "PIN_CAP NONE"
*DIVIDER /
*DELIMITER :
*BUS_DELIMITER []
*T_UNIT 1 NS
*C_UNIT 1 PF
*R_UNIT 1 OHM
*L_UNIT 1 HENRY

*NAME_MAP
*1 io_in[0]
*2 io_in[1]
*3 io_in[2]
*4 io_in[3]
*5 io_in[4]
*6 io_in[5]
*7 io_in[6]
*8 io_in[7]
*9 io_out[0]
*10 io_out[1]
*11 io_out[2]
*12 io_out[3]
*13 io_out[4]
*14 io_out[5]
*15 net9
*16 net8
*19 _000_
*20 _001_
*21 _002_
*22 _003_
*23 _004_
*24 _005_
*25 _006_
*26 _007_
*27 _008_
*28 _009_
*29 _010_
*30 _011_
*31 _012_
*32 _013_
*33 _014_
*34 _015_
*35 _016_
*36 _017_
*37 _018_
*38 _019_
*39 _020_
*40 _021_
*41 _022_
*42 _023_
*43 _024_
*44 _025_
*45 _026_
*46 _027_
*47 _028_
*48 _029_
*49 _030_
*50 _031_
*51 _032_
*52 _033_
*53 _034_
*54 _035_
*55 _036_
*56 _037_
*57 _038_
*58 _039_
*59 _040_
*60 _041_
*61 _042_
*62 _043_
*63 _044_
*64 _045_
*65 _046_
*66 _047_
*67 _048_
*68 _049_
*69 _050_
*70 _051_
*71 _052_
*72 _053_
*73 _054_
*74 _055_
*75 _056_
*76 _057_
*77 _058_
*78 _059_
*79 _060_
*80 net1
*81 net2
*82 net3
*83 net4
*84 net5
*85 net6
*86 net7
*87 FILLER_0_109
*88 FILLER_0_113
*89 FILLER_0_125
*90 FILLER_0_137
*91 FILLER_0_141
*92 FILLER_0_15
*93 FILLER_0_153
*94 FILLER_0_165
*95 FILLER_0_169
*96 FILLER_0_181
*97 FILLER_0_193
*98 FILLER_0_197
*99 FILLER_0_209
*100 FILLER_0_221
*101 FILLER_0_225
*102 FILLER_0_237
*103 FILLER_0_249
*104 FILLER_0_253
*105 FILLER_0_265
*106 FILLER_0_27
*107 FILLER_0_277
*108 FILLER_0_281
*109 FILLER_0_29
*110 FILLER_0_293
*111 FILLER_0_3
*112 FILLER_0_41
*113 FILLER_0_53
*114 FILLER_0_57
*115 FILLER_0_69
*116 FILLER_0_81
*117 FILLER_0_85
*118 FILLER_0_97
*119 FILLER_10_109
*120 FILLER_10_121
*121 FILLER_10_133
*122 FILLER_10_139
*123 FILLER_10_141
*124 FILLER_10_15
*125 FILLER_10_153
*126 FILLER_10_165
*127 FILLER_10_177
*128 FILLER_10_189
*129 FILLER_10_195
*130 FILLER_10_197
*131 FILLER_10_209
*132 FILLER_10_221
*133 FILLER_10_233
*134 FILLER_10_245
*135 FILLER_10_251
*136 FILLER_10_253
*137 FILLER_10_265
*138 FILLER_10_27
*139 FILLER_10_277
*140 FILLER_10_289
*141 FILLER_10_29
*142 FILLER_10_297
*143 FILLER_10_3
*144 FILLER_10_41
*145 FILLER_10_53
*146 FILLER_10_65
*147 FILLER_10_77
*148 FILLER_10_83
*149 FILLER_10_85
*150 FILLER_10_97
*151 FILLER_11_105
*152 FILLER_11_111
*153 FILLER_11_113
*154 FILLER_11_125
*155 FILLER_11_137
*156 FILLER_11_149
*157 FILLER_11_15
*158 FILLER_11_161
*159 FILLER_11_167
*160 FILLER_11_169
*161 FILLER_11_181
*162 FILLER_11_193
*163 FILLER_11_205
*164 FILLER_11_217
*165 FILLER_11_223
*166 FILLER_11_225
*167 FILLER_11_237
*168 FILLER_11_249
*169 FILLER_11_261
*170 FILLER_11_27
*171 FILLER_11_273
*172 FILLER_11_279
*173 FILLER_11_281
*174 FILLER_11_293
*175 FILLER_11_3
*176 FILLER_11_39
*177 FILLER_11_51
*178 FILLER_11_55
*179 FILLER_11_57
*180 FILLER_11_69
*181 FILLER_11_81
*182 FILLER_11_93
*183 FILLER_12_109
*184 FILLER_12_121
*185 FILLER_12_133
*186 FILLER_12_139
*187 FILLER_12_141
*188 FILLER_12_153
*189 FILLER_12_165
*190 FILLER_12_177
*191 FILLER_12_189
*192 FILLER_12_195
*193 FILLER_12_197
*194 FILLER_12_20
*195 FILLER_12_209
*196 FILLER_12_221
*197 FILLER_12_233
*198 FILLER_12_245
*199 FILLER_12_251
*200 FILLER_12_253
*201 FILLER_12_265
*202 FILLER_12_277
*203 FILLER_12_289
*204 FILLER_12_29
*205 FILLER_12_297
*206 FILLER_12_3
*207 FILLER_12_41
*208 FILLER_12_53
*209 FILLER_12_65
*210 FILLER_12_77
*211 FILLER_12_8
*212 FILLER_12_83
*213 FILLER_12_85
*214 FILLER_12_97
*215 FILLER_13_105
*216 FILLER_13_111
*217 FILLER_13_113
*218 FILLER_13_12
*219 FILLER_13_125
*220 FILLER_13_137
*221 FILLER_13_149
*222 FILLER_13_161
*223 FILLER_13_167
*224 FILLER_13_169
*225 FILLER_13_181
*226 FILLER_13_193
*227 FILLER_13_205
*228 FILLER_13_217
*229 FILLER_13_223
*230 FILLER_13_225
*231 FILLER_13_237
*232 FILLER_13_24
*233 FILLER_13_249
*234 FILLER_13_261
*235 FILLER_13_273
*236 FILLER_13_279
*237 FILLER_13_281
*238 FILLER_13_293
*239 FILLER_13_3
*240 FILLER_13_36
*241 FILLER_13_48
*242 FILLER_13_57
*243 FILLER_13_69
*244 FILLER_13_81
*245 FILLER_13_93
*246 FILLER_14_109
*247 FILLER_14_121
*248 FILLER_14_13
*249 FILLER_14_133
*250 FILLER_14_139
*251 FILLER_14_141
*252 FILLER_14_153
*253 FILLER_14_165
*254 FILLER_14_177
*255 FILLER_14_189
*256 FILLER_14_195
*257 FILLER_14_197
*258 FILLER_14_209
*259 FILLER_14_221
*260 FILLER_14_233
*261 FILLER_14_245
*262 FILLER_14_25
*263 FILLER_14_251
*264 FILLER_14_253
*265 FILLER_14_265
*266 FILLER_14_277
*267 FILLER_14_289
*268 FILLER_14_29
*269 FILLER_14_297
*270 FILLER_14_3
*271 FILLER_14_41
*272 FILLER_14_53
*273 FILLER_14_65
*274 FILLER_14_77
*275 FILLER_14_83
*276 FILLER_14_85
*277 FILLER_14_97
*278 FILLER_15_105
*279 FILLER_15_111
*280 FILLER_15_113
*281 FILLER_15_125
*282 FILLER_15_137
*283 FILLER_15_149
*284 FILLER_15_161
*285 FILLER_15_167
*286 FILLER_15_169
*287 FILLER_15_181
*288 FILLER_15_193
*289 FILLER_15_205
*290 FILLER_15_21
*291 FILLER_15_217
*292 FILLER_15_223
*293 FILLER_15_225
*294 FILLER_15_237
*295 FILLER_15_249
*296 FILLER_15_261
*297 FILLER_15_273
*298 FILLER_15_279
*299 FILLER_15_281
*300 FILLER_15_29
*301 FILLER_15_293
*302 FILLER_15_3
*303 FILLER_15_41
*304 FILLER_15_53
*305 FILLER_15_57
*306 FILLER_15_69
*307 FILLER_15_7
*308 FILLER_15_81
*309 FILLER_15_93
*310 FILLER_16_109
*311 FILLER_16_121
*312 FILLER_16_133
*313 FILLER_16_139
*314 FILLER_16_141
*315 FILLER_16_153
*316 FILLER_16_165
*317 FILLER_16_177
*318 FILLER_16_189
*319 FILLER_16_195
*320 FILLER_16_197
*321 FILLER_16_20
*322 FILLER_16_209
*323 FILLER_16_221
*324 FILLER_16_233
*325 FILLER_16_245
*326 FILLER_16_251
*327 FILLER_16_253
*328 FILLER_16_265
*329 FILLER_16_277
*330 FILLER_16_289
*331 FILLER_16_29
*332 FILLER_16_297
*333 FILLER_16_3
*334 FILLER_16_41
*335 FILLER_16_53
*336 FILLER_16_65
*337 FILLER_16_77
*338 FILLER_16_83
*339 FILLER_16_85
*340 FILLER_16_9
*341 FILLER_16_97
*342 FILLER_17_10
*343 FILLER_17_105
*344 FILLER_17_111
*345 FILLER_17_113
*346 FILLER_17_125
*347 FILLER_17_137
*348 FILLER_17_149
*349 FILLER_17_161
*350 FILLER_17_167
*351 FILLER_17_169
*352 FILLER_17_181
*353 FILLER_17_193
*354 FILLER_17_205
*355 FILLER_17_21
*356 FILLER_17_217
*357 FILLER_17_223
*358 FILLER_17_225
*359 FILLER_17_237
*360 FILLER_17_249
*361 FILLER_17_25
*362 FILLER_17_261
*363 FILLER_17_273
*364 FILLER_17_279
*365 FILLER_17_281
*366 FILLER_17_293
*367 FILLER_17_3
*368 FILLER_17_32
*369 FILLER_17_44
*370 FILLER_17_57
*371 FILLER_17_69
*372 FILLER_17_81
*373 FILLER_17_93
*374 FILLER_18_109
*375 FILLER_18_11
*376 FILLER_18_121
*377 FILLER_18_133
*378 FILLER_18_139
*379 FILLER_18_141
*380 FILLER_18_153
*381 FILLER_18_165
*382 FILLER_18_177
*383 FILLER_18_18
*384 FILLER_18_189
*385 FILLER_18_195
*386 FILLER_18_197
*387 FILLER_18_209
*388 FILLER_18_221
*389 FILLER_18_233
*390 FILLER_18_245
*391 FILLER_18_251
*392 FILLER_18_253
*393 FILLER_18_26
*394 FILLER_18_265
*395 FILLER_18_277
*396 FILLER_18_289
*397 FILLER_18_29
*398 FILLER_18_297
*399 FILLER_18_3
*400 FILLER_18_37
*401 FILLER_18_49
*402 FILLER_18_61
*403 FILLER_18_73
*404 FILLER_18_81
*405 FILLER_18_85
*406 FILLER_18_97
*407 FILLER_19_105
*408 FILLER_19_111
*409 FILLER_19_113
*410 FILLER_19_125
*411 FILLER_19_137
*412 FILLER_19_149
*413 FILLER_19_161
*414 FILLER_19_167
*415 FILLER_19_169
*416 FILLER_19_181
*417 FILLER_19_193
*418 FILLER_19_20
*419 FILLER_19_205
*420 FILLER_19_217
*421 FILLER_19_223
*422 FILLER_19_225
*423 FILLER_19_237
*424 FILLER_19_249
*425 FILLER_19_261
*426 FILLER_19_273
*427 FILLER_19_279
*428 FILLER_19_28
*429 FILLER_19_281
*430 FILLER_19_293
*431 FILLER_19_3
*432 FILLER_19_38
*433 FILLER_19_49
*434 FILLER_19_55
*435 FILLER_19_57
*436 FILLER_19_69
*437 FILLER_19_8
*438 FILLER_19_81
*439 FILLER_19_93
*440 FILLER_1_105
*441 FILLER_1_111
*442 FILLER_1_113
*443 FILLER_1_125
*444 FILLER_1_137
*445 FILLER_1_149
*446 FILLER_1_15
*447 FILLER_1_161
*448 FILLER_1_167
*449 FILLER_1_169
*450 FILLER_1_181
*451 FILLER_1_193
*452 FILLER_1_205
*453 FILLER_1_217
*454 FILLER_1_223
*455 FILLER_1_225
*456 FILLER_1_237
*457 FILLER_1_249
*458 FILLER_1_261
*459 FILLER_1_27
*460 FILLER_1_273
*461 FILLER_1_279
*462 FILLER_1_281
*463 FILLER_1_293
*464 FILLER_1_3
*465 FILLER_1_39
*466 FILLER_1_51
*467 FILLER_1_55
*468 FILLER_1_57
*469 FILLER_1_69
*470 FILLER_1_81
*471 FILLER_1_93
*472 FILLER_20_109
*473 FILLER_20_121
*474 FILLER_20_133
*475 FILLER_20_139
*476 FILLER_20_141
*477 FILLER_20_153
*478 FILLER_20_165
*479 FILLER_20_177
*480 FILLER_20_18
*481 FILLER_20_189
*482 FILLER_20_195
*483 FILLER_20_197
*484 FILLER_20_209
*485 FILLER_20_221
*486 FILLER_20_233
*487 FILLER_20_245
*488 FILLER_20_251
*489 FILLER_20_253
*490 FILLER_20_26
*491 FILLER_20_265
*492 FILLER_20_277
*493 FILLER_20_289
*494 FILLER_20_29
*495 FILLER_20_297
*496 FILLER_20_3
*497 FILLER_20_41
*498 FILLER_20_52
*499 FILLER_20_64
*500 FILLER_20_76
*501 FILLER_20_85
*502 FILLER_20_9
*503 FILLER_20_97
*504 FILLER_21_107
*505 FILLER_21_111
*506 FILLER_21_113
*507 FILLER_21_125
*508 FILLER_21_137
*509 FILLER_21_149
*510 FILLER_21_15
*511 FILLER_21_161
*512 FILLER_21_167
*513 FILLER_21_169
*514 FILLER_21_181
*515 FILLER_21_193
*516 FILLER_21_205
*517 FILLER_21_217
*518 FILLER_21_223
*519 FILLER_21_225
*520 FILLER_21_237
*521 FILLER_21_249
*522 FILLER_21_261
*523 FILLER_21_273
*524 FILLER_21_279
*525 FILLER_21_281
*526 FILLER_21_293
*527 FILLER_21_3
*528 FILLER_21_30
*529 FILLER_21_37
*530 FILLER_21_49
*531 FILLER_21_55
*532 FILLER_21_57
*533 FILLER_21_71
*534 FILLER_21_83
*535 FILLER_21_95
*536 FILLER_22_109
*537 FILLER_22_121
*538 FILLER_22_133
*539 FILLER_22_139
*540 FILLER_22_141
*541 FILLER_22_153
*542 FILLER_22_16
*543 FILLER_22_165
*544 FILLER_22_177
*545 FILLER_22_189
*546 FILLER_22_195
*547 FILLER_22_197
*548 FILLER_22_209
*549 FILLER_22_22
*550 FILLER_22_221
*551 FILLER_22_233
*552 FILLER_22_245
*553 FILLER_22_251
*554 FILLER_22_253
*555 FILLER_22_26
*556 FILLER_22_265
*557 FILLER_22_277
*558 FILLER_22_289
*559 FILLER_22_29
*560 FILLER_22_297
*561 FILLER_22_3
*562 FILLER_22_38
*563 FILLER_22_50
*564 FILLER_22_62
*565 FILLER_22_74
*566 FILLER_22_82
*567 FILLER_22_85
*568 FILLER_22_97
*569 FILLER_23_105
*570 FILLER_23_111
*571 FILLER_23_113
*572 FILLER_23_125
*573 FILLER_23_137
*574 FILLER_23_149
*575 FILLER_23_15
*576 FILLER_23_161
*577 FILLER_23_167
*578 FILLER_23_169
*579 FILLER_23_181
*580 FILLER_23_193
*581 FILLER_23_205
*582 FILLER_23_21
*583 FILLER_23_217
*584 FILLER_23_223
*585 FILLER_23_225
*586 FILLER_23_237
*587 FILLER_23_249
*588 FILLER_23_261
*589 FILLER_23_273
*590 FILLER_23_279
*591 FILLER_23_281
*592 FILLER_23_293
*593 FILLER_23_3
*594 FILLER_23_31
*595 FILLER_23_41
*596 FILLER_23_53
*597 FILLER_23_57
*598 FILLER_23_69
*599 FILLER_23_81
*600 FILLER_23_93
*601 FILLER_24_109
*602 FILLER_24_121
*603 FILLER_24_133
*604 FILLER_24_139
*605 FILLER_24_141
*606 FILLER_24_15
*607 FILLER_24_153
*608 FILLER_24_165
*609 FILLER_24_177
*610 FILLER_24_189
*611 FILLER_24_195
*612 FILLER_24_197
*613 FILLER_24_209
*614 FILLER_24_221
*615 FILLER_24_233
*616 FILLER_24_245
*617 FILLER_24_251
*618 FILLER_24_253
*619 FILLER_24_265
*620 FILLER_24_27
*621 FILLER_24_277
*622 FILLER_24_289
*623 FILLER_24_29
*624 FILLER_24_297
*625 FILLER_24_3
*626 FILLER_24_34
*627 FILLER_24_41
*628 FILLER_24_53
*629 FILLER_24_65
*630 FILLER_24_77
*631 FILLER_24_83
*632 FILLER_24_85
*633 FILLER_24_97
*634 FILLER_25_105
*635 FILLER_25_11
*636 FILLER_25_111
*637 FILLER_25_113
*638 FILLER_25_125
*639 FILLER_25_137
*640 FILLER_25_149
*641 FILLER_25_161
*642 FILLER_25_167
*643 FILLER_25_169
*644 FILLER_25_18
*645 FILLER_25_181
*646 FILLER_25_193
*647 FILLER_25_205
*648 FILLER_25_217
*649 FILLER_25_22
*650 FILLER_25_223
*651 FILLER_25_225
*652 FILLER_25_237
*653 FILLER_25_249
*654 FILLER_25_261
*655 FILLER_25_273
*656 FILLER_25_279
*657 FILLER_25_281
*658 FILLER_25_293
*659 FILLER_25_3
*660 FILLER_25_30
*661 FILLER_25_38
*662 FILLER_25_50
*663 FILLER_25_57
*664 FILLER_25_69
*665 FILLER_25_7
*666 FILLER_25_81
*667 FILLER_25_93
*668 FILLER_26_109
*669 FILLER_26_121
*670 FILLER_26_133
*671 FILLER_26_139
*672 FILLER_26_141
*673 FILLER_26_153
*674 FILLER_26_16
*675 FILLER_26_165
*676 FILLER_26_177
*677 FILLER_26_189
*678 FILLER_26_195
*679 FILLER_26_197
*680 FILLER_26_209
*681 FILLER_26_221
*682 FILLER_26_233
*683 FILLER_26_245
*684 FILLER_26_25
*685 FILLER_26_251
*686 FILLER_26_253
*687 FILLER_26_265
*688 FILLER_26_277
*689 FILLER_26_289
*690 FILLER_26_29
*691 FILLER_26_297
*692 FILLER_26_3
*693 FILLER_26_37
*694 FILLER_26_45
*695 FILLER_26_52
*696 FILLER_26_60
*697 FILLER_26_69
*698 FILLER_26_81
*699 FILLER_26_85
*700 FILLER_26_97
*701 FILLER_27_105
*702 FILLER_27_111
*703 FILLER_27_113
*704 FILLER_27_125
*705 FILLER_27_13
*706 FILLER_27_137
*707 FILLER_27_149
*708 FILLER_27_161
*709 FILLER_27_167
*710 FILLER_27_169
*711 FILLER_27_181
*712 FILLER_27_193
*713 FILLER_27_205
*714 FILLER_27_21
*715 FILLER_27_217
*716 FILLER_27_223
*717 FILLER_27_225
*718 FILLER_27_237
*719 FILLER_27_249
*720 FILLER_27_261
*721 FILLER_27_273
*722 FILLER_27_279
*723 FILLER_27_281
*724 FILLER_27_293
*725 FILLER_27_3
*726 FILLER_27_32
*727 FILLER_27_41
*728 FILLER_27_54
*729 FILLER_27_57
*730 FILLER_27_69
*731 FILLER_27_81
*732 FILLER_27_9
*733 FILLER_27_93
*734 FILLER_28_109
*735 FILLER_28_121
*736 FILLER_28_133
*737 FILLER_28_139
*738 FILLER_28_141
*739 FILLER_28_15
*740 FILLER_28_153
*741 FILLER_28_165
*742 FILLER_28_177
*743 FILLER_28_189
*744 FILLER_28_19
*745 FILLER_28_195
*746 FILLER_28_197
*747 FILLER_28_209
*748 FILLER_28_221
*749 FILLER_28_233
*750 FILLER_28_245
*751 FILLER_28_251
*752 FILLER_28_253
*753 FILLER_28_26
*754 FILLER_28_265
*755 FILLER_28_277
*756 FILLER_28_289
*757 FILLER_28_29
*758 FILLER_28_297
*759 FILLER_28_3
*760 FILLER_28_40
*761 FILLER_28_50
*762 FILLER_28_62
*763 FILLER_28_74
*764 FILLER_28_82
*765 FILLER_28_85
*766 FILLER_28_97
*767 FILLER_29_105
*768 FILLER_29_111
*769 FILLER_29_113
*770 FILLER_29_125
*771 FILLER_29_137
*772 FILLER_29_149
*773 FILLER_29_15
*774 FILLER_29_161
*775 FILLER_29_167
*776 FILLER_29_169
*777 FILLER_29_181
*778 FILLER_29_193
*779 FILLER_29_205
*780 FILLER_29_217
*781 FILLER_29_223
*782 FILLER_29_225
*783 FILLER_29_237
*784 FILLER_29_249
*785 FILLER_29_261
*786 FILLER_29_27
*787 FILLER_29_273
*788 FILLER_29_279
*789 FILLER_29_281
*790 FILLER_29_293
*791 FILLER_29_3
*792 FILLER_29_34
*793 FILLER_29_42
*794 FILLER_29_49
*795 FILLER_29_55
*796 FILLER_29_57
*797 FILLER_29_69
*798 FILLER_29_81
*799 FILLER_29_93
*800 FILLER_2_109
*801 FILLER_2_121
*802 FILLER_2_133
*803 FILLER_2_139
*804 FILLER_2_141
*805 FILLER_2_15
*806 FILLER_2_153
*807 FILLER_2_165
*808 FILLER_2_177
*809 FILLER_2_189
*810 FILLER_2_195
*811 FILLER_2_197
*812 FILLER_2_209
*813 FILLER_2_221
*814 FILLER_2_233
*815 FILLER_2_245
*816 FILLER_2_251
*817 FILLER_2_253
*818 FILLER_2_265
*819 FILLER_2_27
*820 FILLER_2_277
*821 FILLER_2_289
*822 FILLER_2_29
*823 FILLER_2_297
*824 FILLER_2_3
*825 FILLER_2_41
*826 FILLER_2_53
*827 FILLER_2_65
*828 FILLER_2_77
*829 FILLER_2_83
*830 FILLER_2_85
*831 FILLER_2_97
*832 FILLER_30_109
*833 FILLER_30_121
*834 FILLER_30_133
*835 FILLER_30_139
*836 FILLER_30_141
*837 FILLER_30_15
*838 FILLER_30_153
*839 FILLER_30_165
*840 FILLER_30_177
*841 FILLER_30_189
*842 FILLER_30_195
*843 FILLER_30_197
*844 FILLER_30_20
*845 FILLER_30_209
*846 FILLER_30_221
*847 FILLER_30_233
*848 FILLER_30_245
*849 FILLER_30_251
*850 FILLER_30_253
*851 FILLER_30_265
*852 FILLER_30_277
*853 FILLER_30_289
*854 FILLER_30_29
*855 FILLER_30_297
*856 FILLER_30_3
*857 FILLER_30_41
*858 FILLER_30_51
*859 FILLER_30_63
*860 FILLER_30_75
*861 FILLER_30_83
*862 FILLER_30_85
*863 FILLER_30_97
*864 FILLER_31_105
*865 FILLER_31_111
*866 FILLER_31_113
*867 FILLER_31_125
*868 FILLER_31_137
*869 FILLER_31_149
*870 FILLER_31_161
*871 FILLER_31_167
*872 FILLER_31_169
*873 FILLER_31_181
*874 FILLER_31_193
*875 FILLER_31_205
*876 FILLER_31_217
*877 FILLER_31_223
*878 FILLER_31_225
*879 FILLER_31_237
*880 FILLER_31_24
*881 FILLER_31_249
*882 FILLER_31_261
*883 FILLER_31_273
*884 FILLER_31_279
*885 FILLER_31_281
*886 FILLER_31_293
*887 FILLER_31_3
*888 FILLER_31_37
*889 FILLER_31_49
*890 FILLER_31_55
*891 FILLER_31_57
*892 FILLER_31_69
*893 FILLER_31_81
*894 FILLER_31_93
*895 FILLER_32_109
*896 FILLER_32_11
*897 FILLER_32_121
*898 FILLER_32_133
*899 FILLER_32_139
*900 FILLER_32_141
*901 FILLER_32_153
*902 FILLER_32_165
*903 FILLER_32_177
*904 FILLER_32_189
*905 FILLER_32_195
*906 FILLER_32_197
*907 FILLER_32_20
*908 FILLER_32_209
*909 FILLER_32_221
*910 FILLER_32_233
*911 FILLER_32_245
*912 FILLER_32_251
*913 FILLER_32_253
*914 FILLER_32_265
*915 FILLER_32_277
*916 FILLER_32_289
*917 FILLER_32_29
*918 FILLER_32_297
*919 FILLER_32_3
*920 FILLER_32_41
*921 FILLER_32_47
*922 FILLER_32_51
*923 FILLER_32_63
*924 FILLER_32_75
*925 FILLER_32_83
*926 FILLER_32_85
*927 FILLER_32_97
*928 FILLER_33_105
*929 FILLER_33_111
*930 FILLER_33_113
*931 FILLER_33_125
*932 FILLER_33_137
*933 FILLER_33_149
*934 FILLER_33_15
*935 FILLER_33_161
*936 FILLER_33_167
*937 FILLER_33_169
*938 FILLER_33_181
*939 FILLER_33_193
*940 FILLER_33_205
*941 FILLER_33_21
*942 FILLER_33_217
*943 FILLER_33_223
*944 FILLER_33_225
*945 FILLER_33_237
*946 FILLER_33_249
*947 FILLER_33_261
*948 FILLER_33_273
*949 FILLER_33_279
*950 FILLER_33_281
*951 FILLER_33_293
*952 FILLER_33_3
*953 FILLER_33_30
*954 FILLER_33_37
*955 FILLER_33_49
*956 FILLER_33_55
*957 FILLER_33_57
*958 FILLER_33_69
*959 FILLER_33_81
*960 FILLER_33_93
*961 FILLER_34_109
*962 FILLER_34_121
*963 FILLER_34_133
*964 FILLER_34_139
*965 FILLER_34_14
*966 FILLER_34_141
*967 FILLER_34_153
*968 FILLER_34_165
*969 FILLER_34_177
*970 FILLER_34_189
*971 FILLER_34_195
*972 FILLER_34_197
*973 FILLER_34_209
*974 FILLER_34_221
*975 FILLER_34_233
*976 FILLER_34_245
*977 FILLER_34_25
*978 FILLER_34_251
*979 FILLER_34_253
*980 FILLER_34_265
*981 FILLER_34_277
*982 FILLER_34_289
*983 FILLER_34_29
*984 FILLER_34_297
*985 FILLER_34_3
*986 FILLER_34_37
*987 FILLER_34_49
*988 FILLER_34_61
*989 FILLER_34_73
*990 FILLER_34_81
*991 FILLER_34_85
*992 FILLER_34_97
*993 FILLER_35_105
*994 FILLER_35_111
*995 FILLER_35_113
*996 FILLER_35_125
*997 FILLER_35_137
*998 FILLER_35_149
*999 FILLER_35_161
*1000 FILLER_35_167
*1001 FILLER_35_169
*1002 FILLER_35_18
*1003 FILLER_35_181
*1004 FILLER_35_193
*1005 FILLER_35_205
*1006 FILLER_35_217
*1007 FILLER_35_22
*1008 FILLER_35_223
*1009 FILLER_35_225
*1010 FILLER_35_237
*1011 FILLER_35_249
*1012 FILLER_35_261
*1013 FILLER_35_273
*1014 FILLER_35_279
*1015 FILLER_35_281
*1016 FILLER_35_293
*1017 FILLER_35_3
*1018 FILLER_35_31
*1019 FILLER_35_41
*1020 FILLER_35_53
*1021 FILLER_35_57
*1022 FILLER_35_69
*1023 FILLER_35_81
*1024 FILLER_35_9
*1025 FILLER_35_93
*1026 FILLER_36_109
*1027 FILLER_36_121
*1028 FILLER_36_133
*1029 FILLER_36_139
*1030 FILLER_36_141
*1031 FILLER_36_153
*1032 FILLER_36_165
*1033 FILLER_36_177
*1034 FILLER_36_189
*1035 FILLER_36_195
*1036 FILLER_36_197
*1037 FILLER_36_209
*1038 FILLER_36_221
*1039 FILLER_36_233
*1040 FILLER_36_24
*1041 FILLER_36_245
*1042 FILLER_36_251
*1043 FILLER_36_253
*1044 FILLER_36_265
*1045 FILLER_36_277
*1046 FILLER_36_289
*1047 FILLER_36_29
*1048 FILLER_36_297
*1049 FILLER_36_3
*1050 FILLER_36_40
*1051 FILLER_36_51
*1052 FILLER_36_63
*1053 FILLER_36_75
*1054 FILLER_36_83
*1055 FILLER_36_85
*1056 FILLER_36_97
*1057 FILLER_37_105
*1058 FILLER_37_111
*1059 FILLER_37_113
*1060 FILLER_37_125
*1061 FILLER_37_137
*1062 FILLER_37_149
*1063 FILLER_37_161
*1064 FILLER_37_167
*1065 FILLER_37_169
*1066 FILLER_37_181
*1067 FILLER_37_193
*1068 FILLER_37_205
*1069 FILLER_37_217
*1070 FILLER_37_223
*1071 FILLER_37_225
*1072 FILLER_37_237
*1073 FILLER_37_249
*1074 FILLER_37_26
*1075 FILLER_37_261
*1076 FILLER_37_273
*1077 FILLER_37_279
*1078 FILLER_37_281
*1079 FILLER_37_293
*1080 FILLER_37_3
*1081 FILLER_37_37
*1082 FILLER_37_49
*1083 FILLER_37_55
*1084 FILLER_37_57
*1085 FILLER_37_69
*1086 FILLER_37_81
*1087 FILLER_37_93
*1088 FILLER_38_109
*1089 FILLER_38_121
*1090 FILLER_38_133
*1091 FILLER_38_139
*1092 FILLER_38_141
*1093 FILLER_38_153
*1094 FILLER_38_165
*1095 FILLER_38_177
*1096 FILLER_38_189
*1097 FILLER_38_195
*1098 FILLER_38_197
*1099 FILLER_38_209
*1100 FILLER_38_22
*1101 FILLER_38_221
*1102 FILLER_38_233
*1103 FILLER_38_245
*1104 FILLER_38_251
*1105 FILLER_38_253
*1106 FILLER_38_265
*1107 FILLER_38_277
*1108 FILLER_38_289
*1109 FILLER_38_29
*1110 FILLER_38_297
*1111 FILLER_38_3
*1112 FILLER_38_41
*1113 FILLER_38_53
*1114 FILLER_38_65
*1115 FILLER_38_77
*1116 FILLER_38_83
*1117 FILLER_38_85
*1118 FILLER_38_97
*1119 FILLER_39_105
*1120 FILLER_39_111
*1121 FILLER_39_113
*1122 FILLER_39_125
*1123 FILLER_39_137
*1124 FILLER_39_149
*1125 FILLER_39_15
*1126 FILLER_39_161
*1127 FILLER_39_167
*1128 FILLER_39_169
*1129 FILLER_39_181
*1130 FILLER_39_193
*1131 FILLER_39_205
*1132 FILLER_39_217
*1133 FILLER_39_223
*1134 FILLER_39_225
*1135 FILLER_39_237
*1136 FILLER_39_249
*1137 FILLER_39_261
*1138 FILLER_39_27
*1139 FILLER_39_273
*1140 FILLER_39_279
*1141 FILLER_39_281
*1142 FILLER_39_293
*1143 FILLER_39_3
*1144 FILLER_39_39
*1145 FILLER_39_51
*1146 FILLER_39_55
*1147 FILLER_39_57
*1148 FILLER_39_69
*1149 FILLER_39_81
*1150 FILLER_39_93
*1151 FILLER_3_105
*1152 FILLER_3_111
*1153 FILLER_3_113
*1154 FILLER_3_125
*1155 FILLER_3_137
*1156 FILLER_3_149
*1157 FILLER_3_15
*1158 FILLER_3_161
*1159 FILLER_3_167
*1160 FILLER_3_169
*1161 FILLER_3_181
*1162 FILLER_3_193
*1163 FILLER_3_205
*1164 FILLER_3_217
*1165 FILLER_3_223
*1166 FILLER_3_225
*1167 FILLER_3_237
*1168 FILLER_3_249
*1169 FILLER_3_261
*1170 FILLER_3_27
*1171 FILLER_3_273
*1172 FILLER_3_279
*1173 FILLER_3_281
*1174 FILLER_3_293
*1175 FILLER_3_3
*1176 FILLER_3_39
*1177 FILLER_3_51
*1178 FILLER_3_55
*1179 FILLER_3_57
*1180 FILLER_3_69
*1181 FILLER_3_81
*1182 FILLER_3_93
*1183 FILLER_40_109
*1184 FILLER_40_121
*1185 FILLER_40_133
*1186 FILLER_40_139
*1187 FILLER_40_141
*1188 FILLER_40_15
*1189 FILLER_40_153
*1190 FILLER_40_165
*1191 FILLER_40_177
*1192 FILLER_40_189
*1193 FILLER_40_195
*1194 FILLER_40_197
*1195 FILLER_40_209
*1196 FILLER_40_221
*1197 FILLER_40_233
*1198 FILLER_40_245
*1199 FILLER_40_251
*1200 FILLER_40_253
*1201 FILLER_40_265
*1202 FILLER_40_27
*1203 FILLER_40_277
*1204 FILLER_40_289
*1205 FILLER_40_29
*1206 FILLER_40_297
*1207 FILLER_40_3
*1208 FILLER_40_41
*1209 FILLER_40_53
*1210 FILLER_40_65
*1211 FILLER_40_77
*1212 FILLER_40_83
*1213 FILLER_40_85
*1214 FILLER_40_97
*1215 FILLER_41_105
*1216 FILLER_41_111
*1217 FILLER_41_113
*1218 FILLER_41_125
*1219 FILLER_41_137
*1220 FILLER_41_149
*1221 FILLER_41_15
*1222 FILLER_41_161
*1223 FILLER_41_167
*1224 FILLER_41_169
*1225 FILLER_41_181
*1226 FILLER_41_193
*1227 FILLER_41_205
*1228 FILLER_41_217
*1229 FILLER_41_223
*1230 FILLER_41_225
*1231 FILLER_41_237
*1232 FILLER_41_249
*1233 FILLER_41_261
*1234 FILLER_41_27
*1235 FILLER_41_273
*1236 FILLER_41_279
*1237 FILLER_41_281
*1238 FILLER_41_293
*1239 FILLER_41_3
*1240 FILLER_41_39
*1241 FILLER_41_51
*1242 FILLER_41_55
*1243 FILLER_41_57
*1244 FILLER_41_69
*1245 FILLER_41_81
*1246 FILLER_41_93
*1247 FILLER_42_109
*1248 FILLER_42_121
*1249 FILLER_42_133
*1250 FILLER_42_139
*1251 FILLER_42_141
*1252 FILLER_42_15
*1253 FILLER_42_153
*1254 FILLER_42_165
*1255 FILLER_42_177
*1256 FILLER_42_189
*1257 FILLER_42_195
*1258 FILLER_42_197
*1259 FILLER_42_209
*1260 FILLER_42_221
*1261 FILLER_42_233
*1262 FILLER_42_245
*1263 FILLER_42_251
*1264 FILLER_42_253
*1265 FILLER_42_265
*1266 FILLER_42_27
*1267 FILLER_42_277
*1268 FILLER_42_289
*1269 FILLER_42_29
*1270 FILLER_42_297
*1271 FILLER_42_3
*1272 FILLER_42_41
*1273 FILLER_42_53
*1274 FILLER_42_65
*1275 FILLER_42_77
*1276 FILLER_42_83
*1277 FILLER_42_85
*1278 FILLER_42_97
*1279 FILLER_43_105
*1280 FILLER_43_111
*1281 FILLER_43_113
*1282 FILLER_43_125
*1283 FILLER_43_137
*1284 FILLER_43_149
*1285 FILLER_43_15
*1286 FILLER_43_161
*1287 FILLER_43_167
*1288 FILLER_43_169
*1289 FILLER_43_181
*1290 FILLER_43_193
*1291 FILLER_43_205
*1292 FILLER_43_217
*1293 FILLER_43_223
*1294 FILLER_43_225
*1295 FILLER_43_237
*1296 FILLER_43_249
*1297 FILLER_43_261
*1298 FILLER_43_27
*1299 FILLER_43_273
*1300 FILLER_43_279
*1301 FILLER_43_281
*1302 FILLER_43_293
*1303 FILLER_43_3
*1304 FILLER_43_39
*1305 FILLER_43_51
*1306 FILLER_43_55
*1307 FILLER_43_57
*1308 FILLER_43_69
*1309 FILLER_43_81
*1310 FILLER_43_93
*1311 FILLER_44_109
*1312 FILLER_44_121
*1313 FILLER_44_133
*1314 FILLER_44_139
*1315 FILLER_44_141
*1316 FILLER_44_15
*1317 FILLER_44_153
*1318 FILLER_44_165
*1319 FILLER_44_177
*1320 FILLER_44_189
*1321 FILLER_44_195
*1322 FILLER_44_197
*1323 FILLER_44_209
*1324 FILLER_44_221
*1325 FILLER_44_233
*1326 FILLER_44_245
*1327 FILLER_44_251
*1328 FILLER_44_253
*1329 FILLER_44_265
*1330 FILLER_44_27
*1331 FILLER_44_277
*1332 FILLER_44_289
*1333 FILLER_44_29
*1334 FILLER_44_297
*1335 FILLER_44_3
*1336 FILLER_44_41
*1337 FILLER_44_53
*1338 FILLER_44_65
*1339 FILLER_44_77
*1340 FILLER_44_83
*1341 FILLER_44_85
*1342 FILLER_44_97
*1343 FILLER_45_105
*1344 FILLER_45_111
*1345 FILLER_45_113
*1346 FILLER_45_125
*1347 FILLER_45_137
*1348 FILLER_45_149
*1349 FILLER_45_15
*1350 FILLER_45_161
*1351 FILLER_45_167
*1352 FILLER_45_169
*1353 FILLER_45_181
*1354 FILLER_45_193
*1355 FILLER_45_205
*1356 FILLER_45_217
*1357 FILLER_45_223
*1358 FILLER_45_225
*1359 FILLER_45_237
*1360 FILLER_45_249
*1361 FILLER_45_261
*1362 FILLER_45_27
*1363 FILLER_45_273
*1364 FILLER_45_279
*1365 FILLER_45_281
*1366 FILLER_45_293
*1367 FILLER_45_3
*1368 FILLER_45_39
*1369 FILLER_45_51
*1370 FILLER_45_55
*1371 FILLER_45_57
*1372 FILLER_45_69
*1373 FILLER_45_81
*1374 FILLER_45_93
*1375 FILLER_46_109
*1376 FILLER_46_121
*1377 FILLER_46_133
*1378 FILLER_46_139
*1379 FILLER_46_141
*1380 FILLER_46_15
*1381 FILLER_46_153
*1382 FILLER_46_165
*1383 FILLER_46_177
*1384 FILLER_46_189
*1385 FILLER_46_195
*1386 FILLER_46_197
*1387 FILLER_46_209
*1388 FILLER_46_221
*1389 FILLER_46_233
*1390 FILLER_46_245
*1391 FILLER_46_251
*1392 FILLER_46_253
*1393 FILLER_46_265
*1394 FILLER_46_27
*1395 FILLER_46_277
*1396 FILLER_46_289
*1397 FILLER_46_29
*1398 FILLER_46_297
*1399 FILLER_46_3
*1400 FILLER_46_41
*1401 FILLER_46_53
*1402 FILLER_46_65
*1403 FILLER_46_77
*1404 FILLER_46_83
*1405 FILLER_46_85
*1406 FILLER_46_97
*1407 FILLER_47_105
*1408 FILLER_47_111
*1409 FILLER_47_113
*1410 FILLER_47_125
*1411 FILLER_47_137
*1412 FILLER_47_149
*1413 FILLER_47_15
*1414 FILLER_47_161
*1415 FILLER_47_167
*1416 FILLER_47_169
*1417 FILLER_47_181
*1418 FILLER_47_193
*1419 FILLER_47_205
*1420 FILLER_47_217
*1421 FILLER_47_223
*1422 FILLER_47_225
*1423 FILLER_47_237
*1424 FILLER_47_249
*1425 FILLER_47_261
*1426 FILLER_47_27
*1427 FILLER_47_273
*1428 FILLER_47_279
*1429 FILLER_47_281
*1430 FILLER_47_293
*1431 FILLER_47_3
*1432 FILLER_47_39
*1433 FILLER_47_51
*1434 FILLER_47_55
*1435 FILLER_47_57
*1436 FILLER_47_69
*1437 FILLER_47_81
*1438 FILLER_47_93
*1439 FILLER_48_109
*1440 FILLER_48_121
*1441 FILLER_48_133
*1442 FILLER_48_139
*1443 FILLER_48_141
*1444 FILLER_48_15
*1445 FILLER_48_153
*1446 FILLER_48_165
*1447 FILLER_48_177
*1448 FILLER_48_189
*1449 FILLER_48_195
*1450 FILLER_48_197
*1451 FILLER_48_209
*1452 FILLER_48_221
*1453 FILLER_48_233
*1454 FILLER_48_245
*1455 FILLER_48_251
*1456 FILLER_48_253
*1457 FILLER_48_265
*1458 FILLER_48_27
*1459 FILLER_48_277
*1460 FILLER_48_289
*1461 FILLER_48_29
*1462 FILLER_48_297
*1463 FILLER_48_3
*1464 FILLER_48_41
*1465 FILLER_48_53
*1466 FILLER_48_65
*1467 FILLER_48_77
*1468 FILLER_48_83
*1469 FILLER_48_85
*1470 FILLER_48_97
*1471 FILLER_49_105
*1472 FILLER_49_111
*1473 FILLER_49_113
*1474 FILLER_49_125
*1475 FILLER_49_137
*1476 FILLER_49_149
*1477 FILLER_49_15
*1478 FILLER_49_161
*1479 FILLER_49_167
*1480 FILLER_49_169
*1481 FILLER_49_181
*1482 FILLER_49_193
*1483 FILLER_49_205
*1484 FILLER_49_217
*1485 FILLER_49_223
*1486 FILLER_49_225
*1487 FILLER_49_237
*1488 FILLER_49_249
*1489 FILLER_49_261
*1490 FILLER_49_27
*1491 FILLER_49_273
*1492 FILLER_49_279
*1493 FILLER_49_281
*1494 FILLER_49_293
*1495 FILLER_49_3
*1496 FILLER_49_39
*1497 FILLER_49_51
*1498 FILLER_49_55
*1499 FILLER_49_57
*1500 FILLER_49_69
*1501 FILLER_49_81
*1502 FILLER_49_93
*1503 FILLER_4_109
*1504 FILLER_4_121
*1505 FILLER_4_133
*1506 FILLER_4_139
*1507 FILLER_4_141
*1508 FILLER_4_15
*1509 FILLER_4_153
*1510 FILLER_4_165
*1511 FILLER_4_177
*1512 FILLER_4_189
*1513 FILLER_4_195
*1514 FILLER_4_197
*1515 FILLER_4_209
*1516 FILLER_4_221
*1517 FILLER_4_233
*1518 FILLER_4_245
*1519 FILLER_4_251
*1520 FILLER_4_253
*1521 FILLER_4_265
*1522 FILLER_4_27
*1523 FILLER_4_277
*1524 FILLER_4_289
*1525 FILLER_4_29
*1526 FILLER_4_297
*1527 FILLER_4_3
*1528 FILLER_4_41
*1529 FILLER_4_53
*1530 FILLER_4_65
*1531 FILLER_4_77
*1532 FILLER_4_83
*1533 FILLER_4_85
*1534 FILLER_4_97
*1535 FILLER_50_109
*1536 FILLER_50_121
*1537 FILLER_50_133
*1538 FILLER_50_139
*1539 FILLER_50_141
*1540 FILLER_50_15
*1541 FILLER_50_153
*1542 FILLER_50_165
*1543 FILLER_50_177
*1544 FILLER_50_189
*1545 FILLER_50_195
*1546 FILLER_50_197
*1547 FILLER_50_209
*1548 FILLER_50_221
*1549 FILLER_50_233
*1550 FILLER_50_245
*1551 FILLER_50_251
*1552 FILLER_50_253
*1553 FILLER_50_265
*1554 FILLER_50_27
*1555 FILLER_50_277
*1556 FILLER_50_289
*1557 FILLER_50_29
*1558 FILLER_50_297
*1559 FILLER_50_3
*1560 FILLER_50_41
*1561 FILLER_50_53
*1562 FILLER_50_65
*1563 FILLER_50_77
*1564 FILLER_50_83
*1565 FILLER_50_85
*1566 FILLER_50_97
*1567 FILLER_51_105
*1568 FILLER_51_111
*1569 FILLER_51_113
*1570 FILLER_51_125
*1571 FILLER_51_137
*1572 FILLER_51_149
*1573 FILLER_51_15
*1574 FILLER_51_161
*1575 FILLER_51_167
*1576 FILLER_51_169
*1577 FILLER_51_181
*1578 FILLER_51_193
*1579 FILLER_51_205
*1580 FILLER_51_217
*1581 FILLER_51_223
*1582 FILLER_51_225
*1583 FILLER_51_237
*1584 FILLER_51_249
*1585 FILLER_51_261
*1586 FILLER_51_27
*1587 FILLER_51_273
*1588 FILLER_51_279
*1589 FILLER_51_281
*1590 FILLER_51_293
*1591 FILLER_51_3
*1592 FILLER_51_39
*1593 FILLER_51_51
*1594 FILLER_51_55
*1595 FILLER_51_57
*1596 FILLER_51_69
*1597 FILLER_51_81
*1598 FILLER_51_93
*1599 FILLER_52_109
*1600 FILLER_52_121
*1601 FILLER_52_133
*1602 FILLER_52_139
*1603 FILLER_52_141
*1604 FILLER_52_15
*1605 FILLER_52_153
*1606 FILLER_52_165
*1607 FILLER_52_177
*1608 FILLER_52_189
*1609 FILLER_52_195