*SPEF "ieee 1481-1999"
*DESIGN "yubex_tiny_logic_analyzer"
*DATE "11:11:11 Fri 11 11, 1111"
*VENDOR "OpenRCX"
*PROGRAM "Parallel Extraction"
*VERSION "1.0"
*DESIGN_FLOW "NAME_SCOPE LOCAL" "PIN_CAP NONE"
*DIVIDER /
*DELIMITER :
*BUS_DELIMITER []
*T_UNIT 1 NS
*C_UNIT 1 PF
*R_UNIT 1 OHM
*L_UNIT 1 HENRY

*NAME_MAP
*1 io_in[0]
*2 io_in[1]
*3 io_in[2]
*4 io_in[3]
*5 io_in[4]
*6 io_in[5]
*7 io_in[6]
*8 io_in[7]
*9 io_out[0]
*10 io_out[1]
*11 io_out[2]
*12 io_out[3]
*13 io_out[4]
*14 io_out[5]
*15 net3
*16 io_out[7]
*19 _000_
*20 _001_
*21 _002_
*22 _003_
*23 _004_
*24 _005_
*25 _006_
*26 _007_
*27 _008_
*28 _009_
*29 _010_
*30 _011_
*31 _012_
*32 _013_
*33 _014_
*34 _015_
*35 _016_
*36 _017_
*37 _018_
*38 _019_
*39 _020_
*40 _021_
*41 _022_
*42 _023_
*43 _024_
*44 _025_
*45 _026_
*46 _027_
*47 _028_
*48 _029_
*49 _030_
*50 _031_
*51 _032_
*52 _033_
*53 _034_
*54 _035_
*55 _036_
*56 _037_
*57 _038_
*58 _039_
*59 _040_
*60 _041_
*61 _042_
*62 _043_
*63 _044_
*64 _045_
*65 _046_
*66 _047_
*67 _048_
*68 _049_
*69 _050_
*70 _051_
*71 _052_
*72 _053_
*73 _054_
*74 _055_
*75 _056_
*76 _057_
*77 _058_
*78 _059_
*79 _060_
*80 _061_
*81 _062_
*82 _063_
*83 _064_
*84 _065_
*85 _066_
*86 _067_
*87 _068_
*88 _069_
*89 _070_
*90 _071_
*91 _072_
*92 _073_
*93 _074_
*94 _075_
*95 _076_
*96 _077_
*97 _078_
*98 _079_
*99 _080_
*100 _081_
*101 _082_
*102 _083_
*103 _084_
*104 _085_
*105 _086_
*106 _087_
*107 _088_
*108 _089_
*109 _090_
*110 _091_
*111 _092_
*112 _093_
*113 _094_
*114 _095_
*115 _096_
*116 _097_
*117 _098_
*118 _099_
*119 _100_
*120 _101_
*121 _102_
*122 _103_
*123 _104_
*124 _105_
*125 _106_
*126 _107_
*127 _108_
*128 _109_
*129 _110_
*130 _111_
*131 _112_
*132 _113_
*133 _114_
*134 _115_
*135 _116_
*136 _117_
*137 _118_
*138 _119_
*139 _120_
*140 _121_
*141 _122_
*142 _123_
*143 _124_
*144 _125_
*145 _126_
*146 _127_
*147 _128_
*148 _129_
*149 _130_
*150 _131_
*151 _132_
*152 _133_
*153 _134_
*154 _135_
*155 _136_
*156 _137_
*157 _138_
*158 _139_
*159 _140_
*160 _141_
*161 _142_
*162 _143_
*163 clknet_0_io_in[0]
*164 clknet_2_0__leaf_io_in[0]
*165 clknet_2_1__leaf_io_in[0]
*166 clknet_2_2__leaf_io_in[0]
*167 clknet_2_3__leaf_io_in[0]
*168 falling_edge_delay_cnt\[0\]
*169 falling_edge_delay_cnt\[10\]
*170 falling_edge_delay_cnt\[11\]
*171 falling_edge_delay_cnt\[1\]
*172 falling_edge_delay_cnt\[2\]
*173 falling_edge_delay_cnt\[3\]
*174 falling_edge_delay_cnt\[4\]
*175 falling_edge_delay_cnt\[5\]
*176 falling_edge_delay_cnt\[6\]
*177 falling_edge_delay_cnt\[7\]
*178 falling_edge_delay_cnt\[8\]
*179 falling_edge_delay_cnt\[9\]
*180 falling_edge_delay_cnt_en
*181 falling_edge_detected
*182 high_detected
*183 low_detected
*184 net1
*185 net2
*186 net4
*187 net5
*188 net6
*189 net7
*190 net8
*191 net9
*192 rising_edge_delay_cnt\[0\]
*193 rising_edge_delay_cnt\[10\]
*194 rising_edge_delay_cnt\[11\]
*195 rising_edge_delay_cnt\[1\]
*196 rising_edge_delay_cnt\[2\]
*197 rising_edge_delay_cnt\[3\]
*198 rising_edge_delay_cnt\[4\]
*199 rising_edge_delay_cnt\[5\]
*200 rising_edge_delay_cnt\[6\]
*201 rising_edge_delay_cnt\[7\]
*202 rising_edge_delay_cnt\[8\]
*203 rising_edge_delay_cnt\[9\]
*204 rising_edge_delay_cnt_en
*205 rising_edge_detected
*206 sample_sr\[0\]
*207 sample_sr\[1\]
*208 sample_sr\[2\]
*209 sample_sr\[3\]
*210 sample_sr\[4\]
*211 sample_sr\[5\]
*212 sample_sr\[6\]
*213 sample_sr\[7\]
*214 FILLER_0_102
*215 FILLER_0_110
*216 FILLER_0_113
*217 FILLER_0_125
*218 FILLER_0_137
*219 FILLER_0_141
*220 FILLER_0_15
*221 FILLER_0_153
*222 FILLER_0_165
*223 FILLER_0_169
*224 FILLER_0_181
*225 FILLER_0_193
*226 FILLER_0_197
*227 FILLER_0_209
*228 FILLER_0_221
*229 FILLER_0_225
*230 FILLER_0_237
*231 FILLER_0_249
*232 FILLER_0_253
*233 FILLER_0_265
*234 FILLER_0_27
*235 FILLER_0_277
*236 FILLER_0_281
*237 FILLER_0_29
*238 FILLER_0_293
*239 FILLER_0_3
*240 FILLER_0_37
*241 FILLER_0_42
*242 FILLER_0_51
*243 FILLER_0_55
*244 FILLER_0_57
*245 FILLER_0_61
*246 FILLER_0_65
*247 FILLER_0_77
*248 FILLER_0_83
*249 FILLER_0_85
*250 FILLER_0_90
*251 FILLER_10_102
*252 FILLER_10_114
*253 FILLER_10_126
*254 FILLER_10_138
*255 FILLER_10_141
*256 FILLER_10_153
*257 FILLER_10_165
*258 FILLER_10_177
*259 FILLER_10_189
*260 FILLER_10_195
*261 FILLER_10_197
*262 FILLER_10_209
*263 FILLER_10_221
*264 FILLER_10_233
*265 FILLER_10_245
*266 FILLER_10_251
*267 FILLER_10_253
*268 FILLER_10_26
*269 FILLER_10_265
*270 FILLER_10_277
*271 FILLER_10_289
*272 FILLER_10_29
*273 FILLER_10_297
*274 FILLER_10_3
*275 FILLER_10_34
*276 FILLER_10_47
*277 FILLER_10_54
*278 FILLER_10_65
*279 FILLER_10_77
*280 FILLER_10_83
*281 FILLER_10_85
*282 FILLER_10_90
*283 FILLER_11_108
*284 FILLER_11_113
*285 FILLER_11_125
*286 FILLER_11_137
*287 FILLER_11_149
*288 FILLER_11_161
*289 FILLER_11_167
*290 FILLER_11_169
*291 FILLER_11_181
*292 FILLER_11_193
*293 FILLER_11_20
*294 FILLER_11_205
*295 FILLER_11_217
*296 FILLER_11_223
*297 FILLER_11_225
*298 FILLER_11_237
*299 FILLER_11_249
*300 FILLER_11_261
*301 FILLER_11_273
*302 FILLER_11_279
*303 FILLER_11_281
*304 FILLER_11_293
*305 FILLER_11_3
*306 FILLER_11_32
*307 FILLER_11_38
*308 FILLER_11_46
*309 FILLER_11_54
*310 FILLER_11_57
*311 FILLER_11_68
*312 FILLER_11_8
*313 FILLER_11_96
*314 FILLER_12_104
*315 FILLER_12_116
*316 FILLER_12_128
*317 FILLER_12_141
*318 FILLER_12_153
*319 FILLER_12_165
*320 FILLER_12_177
*321 FILLER_12_189
*322 FILLER_12_195
*323 FILLER_12_197
*324 FILLER_12_209
*325 FILLER_12_221
*326 FILLER_12_233
*327 FILLER_12_245
*328 FILLER_12_25
*329 FILLER_12_251
*330 FILLER_12_253
*331 FILLER_12_265
*332 FILLER_12_277
*333 FILLER_12_289
*334 FILLER_12_29
*335 FILLER_12_297
*336 FILLER_12_3
*337 FILLER_12_39
*338 FILLER_12_43
*339 FILLER_12_60
*340 FILLER_12_70
*341 FILLER_12_82
*342 FILLER_12_85
*343 FILLER_12_92
*344 FILLER_13_106
*345 FILLER_13_113
*346 FILLER_13_125
*347 FILLER_13_137
*348 FILLER_13_149
*349 FILLER_13_161
*350 FILLER_13_167
*351 FILLER_13_169
*352 FILLER_13_17
*353 FILLER_13_181
*354 FILLER_13_193
*355 FILLER_13_205
*356 FILLER_13_217
*357 FILLER_13_223
*358 FILLER_13_225
*359 FILLER_13_237
*360 FILLER_13_249
*361 FILLER_13_261
*362 FILLER_13_273
*363 FILLER_13_279
*364 FILLER_13_281
*365 FILLER_13_293
*366 FILLER_13_3
*367 FILLER_13_41
*368 FILLER_13_49
*369 FILLER_13_55
*370 FILLER_13_57
*371 FILLER_13_67
*372 FILLER_13_75
*373 FILLER_13_82
*374 FILLER_13_94
*375 FILLER_14_104
*376 FILLER_14_116
*377 FILLER_14_128
*378 FILLER_14_141
*379 FILLER_14_153
*380 FILLER_14_165
*381 FILLER_14_177
*382 FILLER_14_189
*383 FILLER_14_195
*384 FILLER_14_197
*385 FILLER_14_209
*386 FILLER_14_221
*387 FILLER_14_233
*388 FILLER_14_245
*389 FILLER_14_25
*390 FILLER_14_251
*391 FILLER_14_253
*392 FILLER_14_265
*393 FILLER_14_277
*394 FILLER_14_289
*395 FILLER_14_29
*396 FILLER_14_297
*397 FILLER_14_3
*398 FILLER_14_39
*399 FILLER_14_46
*400 FILLER_14_54
*401 FILLER_14_75
*402 FILLER_14_82
*403 FILLER_14_85
*404 FILLER_14_92
*405 FILLER_15_110
*406 FILLER_15_113
*407 FILLER_15_125
*408 FILLER_15_137
*409 FILLER_15_149
*410 FILLER_15_15
*411 FILLER_15_161
*412 FILLER_15_167
*413 FILLER_15_169
*414 FILLER_15_181
*415 FILLER_15_193
*416 FILLER_15_205
*417 FILLER_15_217
*418 FILLER_15_223
*419 FILLER_15_225
*420 FILLER_15_23
*421 FILLER_15_237
*422 FILLER_15_249
*423 FILLER_15_261
*424 FILLER_15_273
*425 FILLER_15_279
*426 FILLER_15_281
*427 FILLER_15_293
*428 FILLER_15_3
*429 FILLER_15_45
*430 FILLER_15_54
*431 FILLER_15_57
*432 FILLER_15_62
*433 FILLER_15_69
*434 FILLER_15_77
*435 FILLER_15_98
*436 FILLER_16_103
*437 FILLER_16_115
*438 FILLER_16_127
*439 FILLER_16_139
*440 FILLER_16_141
*441 FILLER_16_153
*442 FILLER_16_165
*443 FILLER_16_177
*444 FILLER_16_189
*445 FILLER_16_195
*446 FILLER_16_197
*447 FILLER_16_209
*448 FILLER_16_221
*449 FILLER_16_233
*450 FILLER_16_245
*451 FILLER_16_251
*452 FILLER_16_253
*453 FILLER_16_26
*454 FILLER_16_265
*455 FILLER_16_277
*456 FILLER_16_289
*457 FILLER_16_29
*458 FILLER_16_297
*459 FILLER_16_3
*460 FILLER_16_34
*461 FILLER_16_65
*462 FILLER_16_72
*463 FILLER_16_79
*464 FILLER_16_83
*465 FILLER_16_85
*466 FILLER_16_91
*467 FILLER_17_11
*468 FILLER_17_111
*469 FILLER_17_113
*470 FILLER_17_125
*471 FILLER_17_137
*472 FILLER_17_149
*473 FILLER_17_161
*474 FILLER_17_167
*475 FILLER_17_169
*476 FILLER_17_18
*477 FILLER_17_181
*478 FILLER_17_193
*479 FILLER_17_205
*480 FILLER_17_217
*481 FILLER_17_223
*482 FILLER_17_225
*483 FILLER_17_237
*484 FILLER_17_249
*485 FILLER_17_25
*486 FILLER_17_261
*487 FILLER_17_273
*488 FILLER_17_279
*489 FILLER_17_281
*490 FILLER_17_293
*491 FILLER_17_3
*492 FILLER_17_32
*493 FILLER_17_39
*494 FILLER_17_45
*495 FILLER_17_54
*496 FILLER_17_57
*497 FILLER_17_81
*498 FILLER_17_85
*499 FILLER_17_92
*500 FILLER_17_99
*501 FILLER_18_104
*502 FILLER_18_116
*503 FILLER_18_128
*504 FILLER_18_141
*505 FILLER_18_153
*506 FILLER_18_165
*507 FILLER_18_177
*508 FILLER_18_189
*509 FILLER_18_195
*510 FILLER_18_197
*511 FILLER_18_209
*512 FILLER_18_221
*513 FILLER_18_233
*514 FILLER_18_245
*515 FILLER_18_25
*516 FILLER_18_251
*517 FILLER_18_253
*518 FILLER_18_265
*519 FILLER_18_277
*520 FILLER_18_289
*521 FILLER_18_29
*522 FILLER_18_297
*523 FILLER_18_3
*524 FILLER_18_39
*525 FILLER_18_63
*526 FILLER_18_70
*527 FILLER_18_82
*528 FILLER_18_85
*529 FILLER_18_95
*530 FILLER_19_111
*531 FILLER_19_113
*532 FILLER_19_125
*533 FILLER_19_137
*534 FILLER_19_149
*535 FILLER_19_15
*536 FILLER_19_161
*537 FILLER_19_167
*538 FILLER_19_169
*539 FILLER_19_181
*540 FILLER_19_193
*541 FILLER_19_205
*542 FILLER_19_217
*543 FILLER_19_223
*544 FILLER_19_225
*545 FILLER_19_237
*546 FILLER_19_249
*547 FILLER_19_261
*548 FILLER_19_27
*549 FILLER_19_273
*550 FILLER_19_279
*551 FILLER_19_281
*552 FILLER_19_293
*553 FILLER_19_3
*554 FILLER_19_52
*555 FILLER_19_57
*556 FILLER_19_79
*557 FILLER_19_90
*558 FILLER_19_99
*559 FILLER_1_107
*560 FILLER_1_111
*561 FILLER_1_113
*562 FILLER_1_125
*563 FILLER_1_137
*564 FILLER_1_149
*565 FILLER_1_15
*566 FILLER_1_161
*567 FILLER_1_167
*568 FILLER_1_169
*569 FILLER_1_181
*570 FILLER_1_193
*571 FILLER_1_205
*572 FILLER_1_217
*573 FILLER_1_223
*574 FILLER_1_225
*575 FILLER_1_237
*576 FILLER_1_249
*577 FILLER_1_261
*578 FILLER_1_27
*579 FILLER_1_273
*580 FILLER_1_279
*581 FILLER_1_281
*582 FILLER_1_293
*583 FILLER_1_3
*584 FILLER_1_49
*585 FILLER_1_55
*586 FILLER_1_57
*587 FILLER_1_67
*588 FILLER_1_95
*589 FILLER_20_103
*590 FILLER_20_115
*591 FILLER_20_127
*592 FILLER_20_139
*593 FILLER_20_141
*594 FILLER_20_153
*595 FILLER_20_165
*596 FILLER_20_177
*597 FILLER_20_189
*598 FILLER_20_195
*599 FILLER_20_197
*600 FILLER_20_209
*601 FILLER_20_221
*602 FILLER_20_233
*603 FILLER_20_245
*604 FILLER_20_251
*605 FILLER_20_253
*606 FILLER_20_26
*607 FILLER_20_265
*608 FILLER_20_277
*609 FILLER_20_289
*610 FILLER_20_29
*611 FILLER_20_297
*612 FILLER_20_3
*613 FILLER_20_38
*614 FILLER_20_42
*615 FILLER_20_46
*616 FILLER_20_57
*617 FILLER_20_65
*618 FILLER_20_74
*619 FILLER_20_81
*620 FILLER_20_85
*621 FILLER_20_91
*622 FILLER_21_109
*623 FILLER_21_113
*624 FILLER_21_12
*625 FILLER_21_125
*626 FILLER_21_137
*627 FILLER_21_149
*628 FILLER_21_161
*629 FILLER_21_167
*630 FILLER_21_169
*631 FILLER_21_181
*632 FILLER_21_193
*633 FILLER_21_205
*634 FILLER_21_217
*635 FILLER_21_22
*636 FILLER_21_223
*637 FILLER_21_225
*638 FILLER_21_237
*639 FILLER_21_249
*640 FILLER_21_261
*641 FILLER_21_273
*642 FILLER_21_279
*643 FILLER_21_281
*644 FILLER_21_293
*645 FILLER_21_3
*646 FILLER_21_46
*647 FILLER_21_54
*648 FILLER_21_57
*649 FILLER_21_65
*650 FILLER_21_97
*651 FILLER_22_104
*652 FILLER_22_111
*653 FILLER_22_123
*654 FILLER_22_135
*655 FILLER_22_139
*656 FILLER_22_141
*657 FILLER_22_153
*658 FILLER_22_165
*659 FILLER_22_177
*660 FILLER_22_189
*661 FILLER_22_195
*662 FILLER_22_197
*663 FILLER_22_209
*664 FILLER_22_221
*665 FILLER_22_233
*666 FILLER_22_245
*667 FILLER_22_25
*668 FILLER_22_251
*669 FILLER_22_253
*670 FILLER_22_265
*671 FILLER_22_277
*672 FILLER_22_289
*673 FILLER_22_29
*674 FILLER_22_297
*675 FILLER_22_3
*676 FILLER_22_33
*677 FILLER_22_41
*678 FILLER_22_65
*679 FILLER_22_69
*680 FILLER_22_77
*681 FILLER_22_83
*682 FILLER_22_85
*683 FILLER_22_95
*684 FILLER_23_10
*685 FILLER_23_107
*686 FILLER_23_111
*687 FILLER_23_113
*688 FILLER_23_125
*689 FILLER_23_137
*690 FILLER_23_149
*691 FILLER_23_161
*692 FILLER_23_167
*693 FILLER_23_169
*694 FILLER_23_181
*695 FILLER_23_193
*696 FILLER_23_205
*697 FILLER_23_217
*698 FILLER_23_223
*699 FILLER_23_225
*700 FILLER_23_237
*701 FILLER_23_249
*702 FILLER_23_261
*703 FILLER_23_273
*704 FILLER_23_279
*705 FILLER_23_281
*706 FILLER_23_293
*707 FILLER_23_3
*708 FILLER_23_36
*709 FILLER_23_44
*710 FILLER_23_54
*711 FILLER_23_57
*712 FILLER_23_66
*713 FILLER_23_76
*714 FILLER_23_88
*715 FILLER_23_95
*716 FILLER_24_107
*717 FILLER_24_119
*718 FILLER_24_131
*719 FILLER_24_139
*720 FILLER_24_141
*721 FILLER_24_153
*722 FILLER_24_165
*723 FILLER_24_177
*724 FILLER_24_189
*725 FILLER_24_19
*726 FILLER_24_195
*727 FILLER_24_197
*728 FILLER_24_209
*729 FILLER_24_221
*730 FILLER_24_233
*731 FILLER_24_245
*732 FILLER_24_251
*733 FILLER_24_253
*734 FILLER_24_26
*735 FILLER_24_265
*736 FILLER_24_277
*737 FILLER_24_289
*738 FILLER_24_29
*739 FILLER_24_297
*740 FILLER_24_3
*741 FILLER_24_51
*742 FILLER_24_55
*743 FILLER_24_76
*744 FILLER_24_85
*745 FILLER_24_9
*746 FILLER_24_95
*747 FILLER_25_106
*748 FILLER_25_113
*749 FILLER_25_12
*750 FILLER_25_125
*751 FILLER_25_137
*752 FILLER_25_149
*753 FILLER_25_161
*754 FILLER_25_167
*755 FILLER_25_169
*756 FILLER_25_181
*757 FILLER_25_193
*758 FILLER_25_205
*759 FILLER_25_217
*760 FILLER_25_223
*761 FILLER_25_225
*762 FILLER_25_237
*763 FILLER_25_249
*764 FILLER_25_261
*765 FILLER_25_273
*766 FILLER_25_279
*767 FILLER_25_281
*768 FILLER_25_293
*769 FILLER_25_3
*770 FILLER_25_36
*771 FILLER_25_43
*772 FILLER_25_54
*773 FILLER_25_57
*774 FILLER_25_63
*775 FILLER_25_70
*776 FILLER_25_78
*777 FILLER_25_99
*778 FILLER_26_107
*779 FILLER_26_119
*780 FILLER_26_131
*781 FILLER_26_139
*782 FILLER_26_141
*783 FILLER_26_153
*784 FILLER_26_165
*785 FILLER_26_177
*786 FILLER_26_189
*787 FILLER_26_195
*788 FILLER_26_197
*789 FILLER_26_209
*790 FILLER_26_221
*791 FILLER_26_233
*792 FILLER_26_245
*793 FILLER_26_25
*794 FILLER_26_251
*795 FILLER_26_253
*796 FILLER_26_265
*797 FILLER_26_277
*798 FILLER_26_289
*799 FILLER_26_29
*800 FILLER_26_297
*801 FILLER_26_3
*802 FILLER_26_40
*803 FILLER_26_52
*804 FILLER_26_60
*805 FILLER_26_70
*806 FILLER_26_77
*807 FILLER_26_83
*808 FILLER_26_85
*809 FILLER_26_89
*810 FILLER_26_95
*811 FILLER_27_10
*812 FILLER_27_105
*813 FILLER_27_111
*814 FILLER_27_113
*815 FILLER_27_125
*816 FILLER_27_137
*817 FILLER_27_149
*818 FILLER_27_161
*819 FILLER_27_167
*820 FILLER_27_169
*821 FILLER_27_181
*822 FILLER_27_193
*823 FILLER_27_205
*824 FILLER_27_217
*825 FILLER_27_223
*826 FILLER_27_225
*827 FILLER_27_237
*828 FILLER_27_249
*829 FILLER_27_261
*830 FILLER_27_273
*831 FILLER_27_279
*832 FILLER_27_281
*833 FILLER_27_293
*834 FILLER_27_3
*835 FILLER_27_35
*836 FILLER_27_45
*837 FILLER_27_53
*838 FILLER_27_57
*839 FILLER_27_63
*840 FILLER_27_67
*841 FILLER_27_75
*842 FILLER_27_86
*843 FILLER_27_93
*844 FILLER_28_106
*845 FILLER_28_118
*846 FILLER_28_130
*847 FILLER_28_138
*848 FILLER_28_141
*849 FILLER_28_153
*850 FILLER_28_165
*851 FILLER_28_177
*852 FILLER_28_189
*853 FILLER_28_195
*854 FILLER_28_197
*855 FILLER_28_209
*856 FILLER_28_221
*857 FILLER_28_233
*858 FILLER_28_245
*859 FILLER_28_25
*860 FILLER_28_251
*861 FILLER_28_253
*862 FILLER_28_265
*863 FILLER_28_277
*864 FILLER_28_289
*865 FILLER_28_29
*866 FILLER_28_297
*867 FILLER_28_3
*868 FILLER_28_38
*869 FILLER_28_46
*870 FILLER_28_70
*871 FILLER_28_82
*872 FILLER_28_85
*873 FILLER_28_94
*874 FILLER_29_110
*875 FILLER_29_113
*876 FILLER_29_125
*877 FILLER_29_137
*878 FILLER_29_149
*879 FILLER_29_161
*880 FILLER_29_167
*881 FILLER_29_169
*882 FILLER_29_17
*883 FILLER_29_181
*884 FILLER_29_193
*885 FILLER_29_205
*886 FILLER_29_217
*887 FILLER_29_223
*888 FILLER_29_225
*889 FILLER_29_237
*890 FILLER_29_24
*891 FILLER_29_249
*892 FILLER_29_261
*893 FILLER_29_273
*894 FILLER_29_279
*895 FILLER_29_281
*896 FILLER_29_293
*897 FILLER_29_3
*898 FILLER_29_48
*899 FILLER_29_57
*900 FILLER_29_67
*901 FILLER_29_74
*902 FILLER_29_8
*903 FILLER_29_98
*904 FILLER_2_105
*905 FILLER_2_117
*906 FILLER_2_129
*907 FILLER_2_137
*908 FILLER_2_141
*909 FILLER_2_15
*910 FILLER_2_153
*911 FILLER_2_165
*912 FILLER_2_177
*913 FILLER_2_189
*914 FILLER_2_195
*915 FILLER_2_197
*916 FILLER_2_209
*917 FILLER_2_221
*918 FILLER_2_233
*919 FILLER_2_245
*920 FILLER_2_251
*921 FILLER_2_253
*922 FILLER_2_265
*923 FILLER_2_27
*924 FILLER_2_277
*925 FILLER_2_289
*926 FILLER_2_29
*927 FILLER_2_297
*928 FILLER_2_3
*929 FILLER_2_36
*930 FILLER_2_48
*931 FILLER_2_72
*932 FILLER_2_81
*933 FILLER_2_85
*934 FILLER_2_93
*935 FILLER_30_103
*936 FILLER_30_11
*937 FILLER_30_115
*938 FILLER_30_127
*939 FILLER_30_139
*940 FILLER_30_141
*941 FILLER_30_153
*942 FILLER_30_165
*943 FILLER_30_177
*944 FILLER_30_18
*945 FILLER_30_189
*946 FILLER_30_195
*947 FILLER_30_197
*948 FILLER_30_209
*949 FILLER_30_221
*950 FILLER_30_233
*951 FILLER_30_245
*952 FILLER_30_251
*953 FILLER_30_253
*954 FILLER_30_26
*955 FILLER_30_265
*956 FILLER_30_277
*957 FILLER_30_289
*958 FILLER_30_29
*959 FILLER_30_297
*960 FILLER_30_3
*961 FILLER_30_37
*962 FILLER_30_42
*963 FILLER_30_54
*964 FILLER_30_62
*965 FILLER_30_68
*966 FILLER_30_76
*967 FILLER_30_85
*968 FILLER_30_91
*969 FILLER_31_100
*970 FILLER_31_113
*971 FILLER_31_125
*972 FILLER_31_137
*973 FILLER_31_149
*974 FILLER_31_15
*975 FILLER_31_161
*976 FILLER_31_167
*977 FILLER_31_169
*978 FILLER_31_181
*979 FILLER_31_193
*980 FILLER_31_205
*981 FILLER_31_217
*982 FILLER_31_223
*983 FILLER_31_225
*984 FILLER_31_237
*985 FILLER_31_249
*986 FILLER_31_261
*987 FILLER_31_27
*988 FILLER_31_273
*989 FILLER_31_279
*990 FILLER_31_281
*991 FILLER_31_293
*992 FILLER_31_3
*993 FILLER_31_39
*994 FILLER_31_51
*995 FILLER_31_55
*996 FILLER_31_57
*997 FILLER_31_64
*998 FILLER_31_76
*999 FILLER_31_88
*1000 FILLER_32_109
*1001 FILLER_32_121
*1002 FILLER_32_133
*1003 FILLER_32_139
*1004 FILLER_32_141
*1005 FILLER_32_15
*1006 FILLER_32_153
*1007 FILLER_32_165
*1008 FILLER_32_177
*1009 FILLER_32_189
*1010 FILLER_32_195
*1011 FILLER_32_197
*1012 FILLER_32_209
*1013 FILLER_32_221
*1014 FILLER_32_233
*1015 FILLER_32_245
*1016 FILLER_32_251
*1017 FILLER_32_253
*1018 FILLER_32_265
*1019 FILLER_32_27
*1020 FILLER_32_277
*1021 FILLER_32_289
*1022 FILLER_32_29
*1023 FILLER_32_297
*1024 FILLER_32_3
*1025 FILLER_32_41
*1026 FILLER_32_53
*1027 FILLER_32_65
*1028 FILLER_32_77
*1029 FILLER_32_83
*1030 FILLER_32_85
*1031 FILLER_32_97
*1032 FILLER_33_105
*1033 FILLER_33_111
*1034 FILLER_33_113
*1035 FILLER_33_125
*1036 FILLER_33_137
*1037 FILLER_33_149
*1038 FILLER_33_15
*1039 FILLER_33_161
*1040 FILLER_33_167
*1041 FILLER_33_169
*1042 FILLER_33_181
*1043 FILLER_33_193
*1044 FILLER_33_205
*1045 FILLER_33_217
*1046 FILLER_33_223
*1047 FILLER_33_225
*1048 FILLER_33_237
*1049 FILLER_33_249
*1050 FILLER_33_261
*1051 FILLER_33_27
*1052 FILLER_33_273
*1053 FILLER_33_279
*1054 FILLER_33_281
*1055 FILLER_33_293
*1056 FILLER_33_3
*1057 FILLER_33_39
*1058 FILLER_33_51
*1059 FILLER_33_55
*1060 FILLER_33_57
*1061 FILLER_33_69
*1062 FILLER_33_81
*1063 FILLER_33_93
*1064 FILLER_34_109
*1065 FILLER_34_121
*1066 FILLER_34_133
*1067 FILLER_34_139
*1068 FILLER_34_141
*1069 FILLER_34_153
*1070 FILLER_34_165
*1071 FILLER_34_177
*1072 FILLER_34_189
*1073 FILLER_34_195
*1074 FILLER_34_197
*1075 FILLER_34_209
*1076 FILLER_34_21
*1077 FILLER_34_221
*1078 FILLER_34_233
*1079 FILLER_34_245
*1080 FILLER_34_251
*1081 FILLER_34_253
*1082 FILLER_34_265
*1083 FILLER_34_27
*1084 FILLER_34_277
*1085 FILLER_34_289
*1086 FILLER_34_29
*1087 FILLER_34_297
*1088 FILLER_34_3
*1089 FILLER_34_41
*1090 FILLER_34_53
*1091 FILLER_34_65
*1092 FILLER_34_77
*1093 FILLER_34_83
*1094 FILLER_34_85
*1095 FILLER_34_9
*1096 FILLER_34_97
*1097 FILLER_35_105
*1098 FILLER_35_111
*1099 FILLER_35_113
*1100 FILLER_35_125
*1101 FILLER_35_137
*1102 FILLER_35_149
*1103 FILLER_35_15
*1104 FILLER_35_161
*1105 FILLER_35_167
*1106 FILLER_35_169
*1107 FILLER_35_181
*1108 FILLER_35_193
*1109 FILLER_35_205
*1110 FILLER_35_217
*1111 FILLER_35_223
*1112 FILLER_35_225
*1113 FILLER_35_237
*1114 FILLER_35_249
*1115 FILLER_35_261
*1116 FILLER_35_27
*1117 FILLER_35_273
*1118 FILLER_35_279
*1119 FILLER_35_281
*1120 FILLER_35_293
*1121 FILLER_35_3
*1122 FILLER_35_39
*1123 FILLER_35_51
*1124 FILLER_35_55
*1125 FILLER_35_57
*1126 FILLER_35_69
*1127 FILLER_35_81
*1128 FILLER_35_93
*1129 FILLER_36_109
*1130 FILLER_36_121
*1131 FILLER_36_133
*1132 FILLER_36_139
*1133 FILLER_36_141
*1134 FILLER_36_15
*1135 FILLER_36_153
*1136 FILLER_36_165
*1137 FILLER_36_177
*1138 FILLER_36_189
*1139 FILLER_36_195
*1140 FILLER_36_197
*1141 FILLER_36_209
*1142 FILLER_36_221
*1143 FILLER_36_233
*1144 FILLER_36_245
*1145 FILLER_36_251
*1146 FILLER_36_253
*1147 FILLER_36_265
*1148 FILLER_36_27
*1149 FILLER_36_277
*1150 FILLER_36_289
*1151 FILLER_36_29
*1152 FILLER_36_297
*1153 FILLER_36_3
*1154 FILLER_36_41
*1155 FILLER_36_53
*1156 FILLER_36_65
*1157 FILLER_36_77
*1158 FILLER_36_83
*1159 FILLER_36_85
*1160 FILLER_36_97
*1161 FILLER_37_105
*1162 FILLER_37_111
*1163 FILLER_37_113
*1164 FILLER_37_125
*1165 FILLER_37_137
*1166 FILLER_37_149
*1167 FILLER_37_161
*1168 FILLER_37_167
*1169 FILLER_37_169
*1170 FILLER_37_181
*1171 FILLER_37_193
*1172 FILLER_37_205
*1173 FILLER_37_21
*1174 FILLER_37_217
*1175 FILLER_37_223
*1176 FILLER_37_225
*1177 FILLER_37_237
*1178 FILLER_37_249
*1179 FILLER_37_261
*1180 FILLER_37_273
*1181 FILLER_37_279
*1182 FILLER_37_281
*1183 FILLER_37_293
*1184 FILLER_37_3
*1185 FILLER_37_33
*1186 FILLER_37_45
*1187 FILLER_37_53
*1188 FILLER_37_57
*1189 FILLER_37_69
*1190 FILLER_37_81
*1191 FILLER_37_9
*1192 FILLER_37_93
*1193 FILLER_38_109
*1194 FILLER_38_121
*1195 FILLER_38_133
*1196 FILLER_38_139
*1197 FILLER_38_141
*1198 FILLER_38_15
*1199 FILLER_38_153
*1200 FILLER_38_165
*1201 FILLER_38_177
*1202 FILLER_38_189
*1203 FILLER_38_195
*1204 FILLER_38_197
*1205 FILLER_38_209
*1206 FILLER_38_221
*1207 FILLER_38_233
*1208 FILLER_38_245
*1209 FILLER_38_251
*1210 FILLER_38_253
*1211 FILLER_38_265
*1212 FILLER_38_27
*1213 FILLER_38_277
*1214 FILLER_38_289
*1215 FILLER_38_29
*1216 FILLER_38_297
*1217 FILLER_38_3
*1218 FILLER_38_41
*1219 FILLER_38_53
*1220 FILLER_38_65
*1221 FILLER_38_77
*1222 FILLER_38_83
*1223 FILLER_38_85
*1224 FILLER_38_97
*1225 FILLER_39_105
*1226 FILLER_39_111
*1227 FILLER_39_113
*1228 FILLER_39_125
*1229 FILLER_39_137
*1230 FILLER_39_149
*1231 FILLER_39_15
*1232 FILLER_39_161
*1233 FILLER_39_167
*1234 FILLER_39_169
*1235 FILLER_39_181
*1236 FILLER_39_193
*1237 FILLER_39_205
*1238 FILLER_39_217
*1239 FILLER_39_223
*1240 FILLER_39_225
*1241 FILLER_39_237
*1242 FILLER_39_249
*1243 FILLER_39_261
*1244 FILLER_39_27
*1245 FILLER_39_273
*1246 FILLER_39_279
*1247 FILLER_39_281
*1248 FILLER_39_293
*1249 FILLER_39_3
*1250 FILLER_39_39
*1251 FILLER_39_51
*1252 FILLER_39_55
*1253 FILLER_39_57
*1254 FILLER_39_69
*1255 FILLER_39_81
*1256 FILLER_39_93
*1257 FILLER_3_105
*1258 FILLER_3_111
*1259 FILLER_3_113
*1260 FILLER_3_125
*1261 FILLER_3_137
*1262 FILLER_3_149
*1263 FILLER_3_15
*1264 FILLER_3_161
*1265 FILLER_3_167
*1266 FILLER_3_169
*1267 FILLER_3_181
*1268 FILLER_3_193
*1269 FILLER_3_205
*1270 FILLER_3_217
*1271 FILLER_3_223
*1272 FILLER_3_225
*1273 FILLER_3_237
*1274 FILLER_3_249
*1275 FILLER_3_261
*1276 FILLER_3_273
*1277 FILLER_3_279
*1278 FILLER_3_281
*1279 FILLER_3_293
*1280 FILLER_3_3
*1281 FILLER_3_39
*1282 FILLER_3_51
*1283 FILLER_3_55
*1284 FILLER_3_57
*1285 FILLER_3_72
*1286 FILLER_3_76
*1287 FILLER_3_8
*1288 FILLER_3_85
*1289 FILLER_3_93
*1290 FILLER_40_109
*1291 FILLER_40_121
*1292 FILLER_40_133
*1293 FILLER_40_139
*1294 FILLER_40_141
*1295 FILLER_40_15
*1296 FILLER_40_153
*1297 FILLER_40_165
*1298 FILLER_40_177
*1299 FILLER_40_189
*1300 FILLER_40_195
*1301 FILLER_40_197
*1302 FILLER_40_209
*1303 FILLER_40_221
*1304 FILLER_40_233
*1305 FILLER_40_245
*1306 FILLER_40_251
*1307 FILLER_40_253
*1308 FILLER_40_265
*1309 FILLER_40_27
*1310 FILLER_40_277
*1311 FILLER_40_289
*1312 FILLER_40_29
*1313 FILLER_40_297
*1314 FILLER_40_3
*1315 FILLER_40_41
*1316 FILLER_40_53
*1317 FILLER_40_65
*1318 FILLER_40_77
*1319 FILLER_40_83
*1320 FILLER_40_85
*1321 FILLER_40_97
*1322 FILLER_41_105
*1323 FILLER_41_111
*1324 FILLER_41_113
*1325 FILLER_41_125
*1326 FILLER_41_137
*1327 FILLER_41_149
*1328 FILLER_41_15
*1329 FILLER_41_161
*1330 FILLER_41_167
*1331 FILLER_41_169
*1332 FILLER_41_181
*1333 FILLER_41_193
*1334 FILLER_41_205
*1335 FILLER_41_217
*1336 FILLER_41_223
*1337 FILLER_41_225
*1338 FILLER_41_237
*1339 FILLER_41_249
*1340 FILLER_41_261
*1341 FILLER_41_27
*1342 FILLER_41_273
*1343 FILLER_41_279
*1344 FILLER_41_281
*1345 FILLER_41_293
*1346 FILLER_41_3
*1347 FILLER_41_39
*1348 FILLER_41_51
*1349 FILLER_41_55
*1350 FILLER_41_57
*1351 FILLER_41_69
*1352 FILLER_41_81
*1353 FILLER_41_93
*1354 FILLER_42_109
*1355 FILLER_42_121
*1356 FILLER_42_133
*1357 FILLER_42_139
*1358 FILLER_42_141
*1359 FILLER_42_15
*1360 FILLER_42_153
*1361 FILLER_42_165
*1362 FILLER_42_177
*1363 FILLER_42_189
*1364 FILLER_42_195
*1365 FILLER_42_197
*1366 FILLER_42_209
*1367 FILLER_42_221
*1368 FILLER_42_233
*1369 FILLER_42_245
*1370 FILLER_42_251
*1371 FILLER_42_253
*1372 FILLER_42_265
*1373 FILLER_42_27
*1374 FILLER_42_277
*1375 FILLER_42_289
*1376 FILLER_42_29
*1377 FILLER_42_297
*1378 FILLER_42_3
*1379 FILLER_42_41
*1380 FILLER_42_53
*1381 FILLER_42_65
*1382 FILLER_42_77
*1383 FILLER_42_83
*1384 FILLER_42_85
*1385 FILLER_42_97
*1386 FILLER_43_105
*1387 FILLER_43_111
*1388 FILLER_43_113
*1389 FILLER_43_125
*1390 FILLER_43_137
*1391 FILLER_43_149
*1392 FILLER_43_15
*1393 FILLER_43_161
*1394 FILLER_43_167
*1395 FILLER_43_169
*1396 FILLER_43_181
*1397 FILLER_43_193
*1398 FILLER_43_205
*1399 FILLER_43_217
*1400 FILLER_43_223
*1401 FILLER_43_225
*1402 FILLER_43_237
*1403 FILLER_43_249
*1404 FILLER_43_261
*1405 FILLER_43_27
*1406 FILLER_43_273
*1407 FILLER_43_279
*1408 FILLER_43_281
*1409 FILLER_43_293
*1410 FILLER_43_3
*1411 FILLER_43_39
*1412 FILLER_43_51
*1413 FILLER_43_55
*1414 FILLER_43_57
*1415 FILLER_43_69
*1416 FILLER_43_81
*1417 FILLER_43_93
*1418 FILLER_44_109
*1419 FILLER_44_121
*1420 FILLER_44_133
*1421 FILLER_44_139
*1422 FILLER_44_141
*1423 FILLER_44_15
*1424 FILLER_44_153
*1425 FILLER_44_165
*1426 FILLER_44_177
*1427 FILLER_44_189
*1428 FILLER_44_195
*1429 FILLER_44_197
*1430 FILLER_44_209
*1431 FILLER_44_221
*1432 FILLER_44_233
*1433 FILLER_44_245
*1434 FILLER_44_251
*1435 FILLER_44_253
*1436 FILLER_44_265
*1437 FILLER_44_27
*1438 FILLER_44_277
*1439 FILLER_44_289
*1440 FILLER_44_29
*1441 FILLER_44_297
*1442 FILLER_44_3
*1443 FILLER_44_41
*1444 FILLER_44_53
*1445 FILLER_44_65
*1446 FILLER_44_77
*1447 FILLER_44_83
*1448 FILLER_44_85
*1449 FILLER_44_97
*1450 FILLER_45_105
*1451 FILLER_45_111
*1452 FILLER_45_113
*1453 FILLER_45_125
*1454 FILLER_45_137
*1455 FILLER_45_149
*1456 FILLER_45_15
*1457 FILLER_45_161
*1458 FILLER_45_167
*1459 FILLER_45_169
*1460 FILLER_45_181
*1461 FILLER_45_193
*1462 FILLER_45_205
*1463 FILLER_45_217
*1464 FILLER_45_223
*1465 FILLER_45_225
*1466 FILLER_45_237
*1467 FILLER_45_249
*1468 FILLER_45_261
*1469 FILLER_45_27
*1470 FILLER_45_273
*1471 FILLER_45_279
*1472 FILLER_45_281
*1473 FILLER_45_293
*1474 FILLER_45_3
*1475 FILLER_45_39
*1476 FILLER_45_51
*1477 FILLER_45_55
*1478 FILLER_45_57
*1479 FILLER_45_69
*1480 FILLER_45_81
*1481 FILLER_45_93
*1482 FILLER_46_109
*1483 FILLER_46_121
*1484 FILLER_46_133
*1485 FILLER_46_139
*1486 FILLER_46_141
*1487 FILLER_46_153
*1488 FILLER_46_165
*1489 FILLER_46_177
*1490 FILLER_46_189
*1491 FILLER_46_195
*1492 FILLER_46_197
*1493 FILLER_46_209
*1494 FILLER_46_21
*1495 FILLER_46_221
*1496 FILLER_46_233
*1497 FILLER_46_245
*1498 FILLER_46_251
*1499 FILLER_46_253
*1500 FILLER_46_265
*1501 FILLER_46_27
*1502 FILLER_46_277
*1503 FILLER_46_289
*1504 FILLER_46_29
*1505 FILLER_46_297
*1506 FILLER_46_3
*1507 FILLER_46_41
*1508 FILLER_46_53
*1509 FILLER_46_65
*1510 FILLER_46_77
*1511 FILLER_46_83
*1512 FILLER_46_85
*1513 FILLER_46_9
*1514 FILLER_46_97
*1515 FILLER_47_105
*1516 FILLER_47_111
*1517 FILLER_47_113
*1518 FILLER_47_125
*1519 FILLER_47_137
*1520 FILLER_47_149
*1521 FILLER_47_15
*1522 FILLER_47_161
*1523 FILLER_47_167
*1524 FILLER_47_169
*1525 FILLER_47_181
*1526 FILLER_47_193
*1527 FILLER_47_205
*1528 FILLER_47_217
*1529 FILLER_47_223
*1530 FILLER_47_225
*1531 FILLER_47_237
*1532 FILLER_47_249
*1533 FILLER_47_261
*1534 FILLER_47_27
*1535 FILLER_47_273
*1536 FILLER_47_279
*1537 FILLER_47_281
*1538 FILLER_47_293
*1539 FILLER_47_3
*1540 FILLER_47_39
*1541 FILLER_47_51
*1542 FILLER_47_55
*1543 FILLER_47_57
*1544 FILLER_47_69
*1545 FILLER_47_81
*1546 FILLER_47_93
*1547 FILLER_48_109
*1548 FILLER_48_121
*1549 FILLER_48_133
*1550 FILLER_48_139
*1551 FILLER_48_141
*1552 FILLER_48_153
*1553 FILLER_48_165
*1554 FILLER_48_177
*1555 FILLER_48_189
*1556 FILLER_48_195
*1557 FILLER_48_197
*1558 FILLER_48_209
*1559 FILLER_48_21
*1560 FILLER_48_221
*1561 FILLER_48_233
*1562 FILLER_48_245
*1563 FILLER_48_251
*1564 FILLER_48_253
*1565 FILLER_48_265
*1566 FILLER_48_27
*1567 FILLER_48_277
*1568 FILLER_48_289
*1569 FILLER_48_29
*1570 FILLER_48_297
*1571 FILLER_48_3
*1572 FILLER_48_41
*1573 FILLER_48_53
*1574 FILLER_48_65
*1575 FILLER_48_77
*1576 FILLER_48_83
*1577 FILLER_48_85
*1578 FILLER_48_9
*1579 FILLER_48_97
*1580 FILLER_49_105
*1581 FILLER_49_111
*1582 FILLER_49_113
*1583 FILLER_49_125
*1584 FILLER_49_137
*1585 FILLER_49_149
*1586 FILLER_49_15
*1587 FILLER_49_161
*1588 FILLER_49_167
*1589 FILLER_49_169
*1590 FILLER_49_181
*1591 FILLER_49_193
*1592 FILLER_49_205
*1593 FILLER_49_217
*1594 FILLER_49_223
*1595 FILLER_49_225
*1596 FILLER_49_237
*1597 FILLER_49_249
*1598 FILLER_49_261
*1599 FILLER_49_27
*1600 FILLER_49_273
*1601 FILLER_49_279
*1602 FILLER_49_281
*1603 FILLER_49_293
*1604 FILLER_49_3
*1605 FILLER_49_39
*1606 FILLER_49_51
*1607 FILLER_49_55
*1608 FILLER_49_57
*1609 FILLER_49_69
*1610 FILLER_49_81
*1611 FILLER_49_93
*1612 FILLER_4_100
*1613 FILLER_4_107
*1614 FILLER_4_119
*1615 FILLER_4_131
*1616 FILLER_4_139
*1617 FILLER_4_141