*SPEF "ieee 1481-1999"
*DESIGN "yubex_egg_timer"
*DATE "11:11:11 Fri 11 11, 1111"
*VENDOR "OpenRCX"
*PROGRAM "Parallel Extraction"
*VERSION "1.0"
*DESIGN_FLOW "NAME_SCOPE LOCAL" "PIN_CAP NONE"
*DIVIDER /
*DELIMITER :
*BUS_DELIMITER []
*T_UNIT 1 NS
*C_UNIT 1 PF
*R_UNIT 1 OHM
*L_UNIT 1 HENRY

*NAME_MAP
*1 io_in[0]
*2 io_in[1]
*3 io_in[2]
*4 io_in[3]
*5 io_in[4]
*6 io_in[5]
*7 io_in[6]
*8 io_in[7]
*9 io_out[0]
*10 io_out[1]
*11 io_out[2]
*12 net8
*13 io_out[4]
*14 io_out[5]
*15 io_out[6]
*16 io_out[7]
*19 _000_
*20 _001_
*21 _002_
*22 _003_
*23 _004_
*24 _005_
*25 _006_
*26 _007_
*27 _008_
*28 _009_
*29 _010_
*30 _011_
*31 _012_
*32 _013_
*33 _014_
*34 _015_
*35 _016_
*36 _017_
*37 _018_
*38 _019_
*39 _020_
*40 _021_
*41 _022_
*42 _023_
*43 _024_
*44 _025_
*45 _026_
*46 _027_
*47 _028_
*48 _029_
*49 _030_
*50 _031_
*51 _032_
*52 _033_
*53 _034_
*54 _035_
*55 _036_
*56 _037_
*57 _038_
*58 _039_
*59 _040_
*60 _041_
*61 _042_
*62 _043_
*63 _044_
*64 _045_
*65 _046_
*66 _047_
*67 _048_
*68 _049_
*69 _050_
*70 _051_
*71 _052_
*72 _053_
*73 _054_
*74 _055_
*75 _056_
*76 _057_
*77 _058_
*78 _059_
*79 _060_
*80 _061_
*81 _062_
*82 _063_
*83 _064_
*84 _065_
*85 _066_
*86 _067_
*87 _068_
*88 _069_
*89 _070_
*90 _071_
*91 _072_
*92 _073_
*93 _074_
*94 _075_
*95 _076_
*96 _077_
*97 _078_
*98 _079_
*99 _080_
*100 _081_
*101 _082_
*102 _083_
*103 _084_
*104 _085_
*105 _086_
*106 _087_
*107 _088_
*108 _089_
*109 _090_
*110 _091_
*111 _092_
*112 _093_
*113 _094_
*114 _095_
*115 _096_
*116 _097_
*117 _098_
*118 _099_
*119 _100_
*120 _101_
*121 _102_
*122 _103_
*123 _104_
*124 _105_
*125 _106_
*126 _107_
*127 _108_
*128 _109_
*129 _110_
*130 _111_
*131 _112_
*132 _113_
*133 _114_
*134 _115_
*135 _116_
*136 _117_
*137 _118_
*138 _119_
*139 _120_
*140 _121_
*141 _122_
*142 _123_
*143 _124_
*144 _125_
*145 _126_
*146 _127_
*147 _128_
*148 _129_
*149 _130_
*150 _131_
*151 _132_
*152 _133_
*153 _134_
*154 _135_
*155 _136_
*156 _137_
*157 _138_
*158 _139_
*159 _140_
*160 _141_
*161 _142_
*162 _143_
*163 _144_
*164 _145_
*165 _146_
*166 _147_
*167 _148_
*168 _149_
*169 _150_
*170 _151_
*171 _152_
*172 _153_
*173 _154_
*174 _155_
*175 clk_cycle_cnt\[0\]
*176 clk_cycle_cnt\[10\]
*177 clk_cycle_cnt\[11\]
*178 clk_cycle_cnt\[12\]
*179 clk_cycle_cnt\[13\]
*180 clk_cycle_cnt\[1\]
*181 clk_cycle_cnt\[2\]
*182 clk_cycle_cnt\[3\]
*183 clk_cycle_cnt\[4\]
*184 clk_cycle_cnt\[5\]
*185 clk_cycle_cnt\[6\]
*186 clk_cycle_cnt\[7\]
*187 clk_cycle_cnt\[8\]
*188 clk_cycle_cnt\[9\]
*189 clknet_0_io_in[0]
*190 clknet_2_0__leaf_io_in[0]
*191 clknet_2_1__leaf_io_in[0]
*192 clknet_2_2__leaf_io_in[0]
*193 clknet_2_3__leaf_io_in[0]
*194 minute_cnt\[0\]
*195 minute_cnt\[1\]
*196 minute_cnt\[2\]
*197 minute_cnt\[3\]
*198 minute_cnt\[4\]
*199 net1
*200 net2
*201 net3
*202 net4
*203 net5
*204 net6
*205 net7
*206 second_cnt\[0\]
*207 second_cnt\[1\]
*208 second_cnt\[2\]
*209 second_cnt\[3\]
*210 second_cnt\[4\]
*211 second_cnt\[5\]
*212 state\[0\]
*213 state\[1\]
*214 FILLER_0_109
*215 FILLER_0_113
*216 FILLER_0_125
*217 FILLER_0_137
*218 FILLER_0_141
*219 FILLER_0_153
*220 FILLER_0_165
*221 FILLER_0_169
*222 FILLER_0_181
*223 FILLER_0_193
*224 FILLER_0_197
*225 FILLER_0_209
*226 FILLER_0_221
*227 FILLER_0_225
*228 FILLER_0_237
*229 FILLER_0_249
*230 FILLER_0_25
*231 FILLER_0_253
*232 FILLER_0_265
*233 FILLER_0_277
*234 FILLER_0_281
*235 FILLER_0_29
*236 FILLER_0_293
*237 FILLER_0_3
*238 FILLER_0_41
*239 FILLER_0_53
*240 FILLER_0_57
*241 FILLER_0_80
*242 FILLER_0_85
*243 FILLER_0_97
*244 FILLER_10_109
*245 FILLER_10_121
*246 FILLER_10_133
*247 FILLER_10_139
*248 FILLER_10_141
*249 FILLER_10_15
*250 FILLER_10_153
*251 FILLER_10_165
*252 FILLER_10_177
*253 FILLER_10_189
*254 FILLER_10_195
*255 FILLER_10_197
*256 FILLER_10_209
*257 FILLER_10_221
*258 FILLER_10_233
*259 FILLER_10_245
*260 FILLER_10_251
*261 FILLER_10_253
*262 FILLER_10_265
*263 FILLER_10_27
*264 FILLER_10_277
*265 FILLER_10_289
*266 FILLER_10_29
*267 FILLER_10_297
*268 FILLER_10_3
*269 FILLER_10_41
*270 FILLER_10_63
*271 FILLER_10_75
*272 FILLER_10_83
*273 FILLER_10_85
*274 FILLER_10_97
*275 FILLER_11_110
*276 FILLER_11_113
*277 FILLER_11_125
*278 FILLER_11_137
*279 FILLER_11_14
*280 FILLER_11_149
*281 FILLER_11_161
*282 FILLER_11_167
*283 FILLER_11_169
*284 FILLER_11_181
*285 FILLER_11_193
*286 FILLER_11_205
*287 FILLER_11_217
*288 FILLER_11_223
*289 FILLER_11_225
*290 FILLER_11_237
*291 FILLER_11_249
*292 FILLER_11_261
*293 FILLER_11_273
*294 FILLER_11_279
*295 FILLER_11_281
*296 FILLER_11_293
*297 FILLER_11_3
*298 FILLER_11_38
*299 FILLER_11_50
*300 FILLER_11_57
*301 FILLER_11_79
*302 FILLER_11_8
*303 FILLER_11_86
*304 FILLER_11_98
*305 FILLER_12_102
*306 FILLER_12_114
*307 FILLER_12_126
*308 FILLER_12_138
*309 FILLER_12_141
*310 FILLER_12_153
*311 FILLER_12_165
*312 FILLER_12_177
*313 FILLER_12_189
*314 FILLER_12_195
*315 FILLER_12_197
*316 FILLER_12_209
*317 FILLER_12_221
*318 FILLER_12_233
*319 FILLER_12_245
*320 FILLER_12_25
*321 FILLER_12_251
*322 FILLER_12_253
*323 FILLER_12_265
*324 FILLER_12_277
*325 FILLER_12_289
*326 FILLER_12_29
*327 FILLER_12_297
*328 FILLER_12_3
*329 FILLER_12_54
*330 FILLER_12_79
*331 FILLER_12_83
*332 FILLER_12_85
*333 FILLER_12_90
*334 FILLER_13_111
*335 FILLER_13_113
*336 FILLER_13_125
*337 FILLER_13_137
*338 FILLER_13_149
*339 FILLER_13_15
*340 FILLER_13_161
*341 FILLER_13_167
*342 FILLER_13_169
*343 FILLER_13_181
*344 FILLER_13_193
*345 FILLER_13_205
*346 FILLER_13_217
*347 FILLER_13_223
*348 FILLER_13_225
*349 FILLER_13_237
*350 FILLER_13_249
*351 FILLER_13_261
*352 FILLER_13_273
*353 FILLER_13_279
*354 FILLER_13_281
*355 FILLER_13_293
*356 FILLER_13_3
*357 FILLER_13_44
*358 FILLER_13_57
*359 FILLER_13_80
*360 FILLER_13_87
*361 FILLER_13_99
*362 FILLER_14_109
*363 FILLER_14_121
*364 FILLER_14_133
*365 FILLER_14_139
*366 FILLER_14_141
*367 FILLER_14_15
*368 FILLER_14_153
*369 FILLER_14_165
*370 FILLER_14_177
*371 FILLER_14_189
*372 FILLER_14_195
*373 FILLER_14_197
*374 FILLER_14_209
*375 FILLER_14_221
*376 FILLER_14_233
*377 FILLER_14_245
*378 FILLER_14_251
*379 FILLER_14_253
*380 FILLER_14_265
*381 FILLER_14_27
*382 FILLER_14_277
*383 FILLER_14_289
*384 FILLER_14_29
*385 FILLER_14_297
*386 FILLER_14_3
*387 FILLER_14_54
*388 FILLER_14_79
*389 FILLER_14_83
*390 FILLER_14_85
*391 FILLER_14_97
*392 FILLER_15_105
*393 FILLER_15_111
*394 FILLER_15_113
*395 FILLER_15_125
*396 FILLER_15_137
*397 FILLER_15_149
*398 FILLER_15_161
*399 FILLER_15_167
*400 FILLER_15_169
*401 FILLER_15_181
*402 FILLER_15_193
*403 FILLER_15_205
*404 FILLER_15_217
*405 FILLER_15_223
*406 FILLER_15_225
*407 FILLER_15_237
*408 FILLER_15_249
*409 FILLER_15_261
*410 FILLER_15_273
*411 FILLER_15_279
*412 FILLER_15_28
*413 FILLER_15_281
*414 FILLER_15_293
*415 FILLER_15_3
*416 FILLER_15_54
*417 FILLER_15_57
*418 FILLER_15_69
*419 FILLER_15_81
*420 FILLER_15_93
*421 FILLER_16_105
*422 FILLER_16_117
*423 FILLER_16_129
*424 FILLER_16_137
*425 FILLER_16_141
*426 FILLER_16_15
*427 FILLER_16_153
*428 FILLER_16_165
*429 FILLER_16_177
*430 FILLER_16_189
*431 FILLER_16_195
*432 FILLER_16_197
*433 FILLER_16_209
*434 FILLER_16_221
*435 FILLER_16_233
*436 FILLER_16_245
*437 FILLER_16_251
*438 FILLER_16_253
*439 FILLER_16_265
*440 FILLER_16_27
*441 FILLER_16_277
*442 FILLER_16_289
*443 FILLER_16_29
*444 FILLER_16_297
*445 FILLER_16_3
*446 FILLER_16_61
*447 FILLER_16_73
*448 FILLER_16_77
*449 FILLER_16_83
*450 FILLER_16_85
*451 FILLER_16_97
*452 FILLER_17_104
*453 FILLER_17_113
*454 FILLER_17_125
*455 FILLER_17_137
*456 FILLER_17_149
*457 FILLER_17_15
*458 FILLER_17_161
*459 FILLER_17_167
*460 FILLER_17_169
*461 FILLER_17_181
*462 FILLER_17_193
*463 FILLER_17_205
*464 FILLER_17_217
*465 FILLER_17_223
*466 FILLER_17_225
*467 FILLER_17_237
*468 FILLER_17_249
*469 FILLER_17_261
*470 FILLER_17_27
*471 FILLER_17_273
*472 FILLER_17_279
*473 FILLER_17_281
*474 FILLER_17_293
*475 FILLER_17_3
*476 FILLER_17_39
*477 FILLER_17_51
*478 FILLER_17_55
*479 FILLER_17_57
*480 FILLER_17_71
*481 FILLER_17_79
*482 FILLER_17_86
*483 FILLER_18_104
*484 FILLER_18_116
*485 FILLER_18_128
*486 FILLER_18_141
*487 FILLER_18_15
*488 FILLER_18_153
*489 FILLER_18_165
*490 FILLER_18_177
*491 FILLER_18_189
*492 FILLER_18_195
*493 FILLER_18_197
*494 FILLER_18_209
*495 FILLER_18_221
*496 FILLER_18_233
*497 FILLER_18_245
*498 FILLER_18_251
*499 FILLER_18_253
*500 FILLER_18_265
*501 FILLER_18_27
*502 FILLER_18_277
*503 FILLER_18_289
*504 FILLER_18_29
*505 FILLER_18_297
*506 FILLER_18_3
*507 FILLER_18_41
*508 FILLER_18_45
*509 FILLER_18_49
*510 FILLER_18_61
*511 FILLER_18_71
*512 FILLER_18_82
*513 FILLER_18_85
*514 FILLER_18_92
*515 FILLER_19_101
*516 FILLER_19_109
*517 FILLER_19_113
*518 FILLER_19_125
*519 FILLER_19_137
*520 FILLER_19_149
*521 FILLER_19_15
*522 FILLER_19_161
*523 FILLER_19_167
*524 FILLER_19_169
*525 FILLER_19_181
*526 FILLER_19_193
*527 FILLER_19_205
*528 FILLER_19_217
*529 FILLER_19_223
*530 FILLER_19_225
*531 FILLER_19_237
*532 FILLER_19_249
*533 FILLER_19_261
*534 FILLER_19_27
*535 FILLER_19_273
*536 FILLER_19_279
*537 FILLER_19_281
*538 FILLER_19_293
*539 FILLER_19_3
*540 FILLER_19_35
*541 FILLER_19_41
*542 FILLER_19_53
*543 FILLER_19_57
*544 FILLER_19_61
*545 FILLER_19_71
*546 FILLER_19_82
*547 FILLER_19_89
*548 FILLER_1_104
*549 FILLER_1_113
*550 FILLER_1_125
*551 FILLER_1_137
*552 FILLER_1_149
*553 FILLER_1_161
*554 FILLER_1_167
*555 FILLER_1_169
*556 FILLER_1_181
*557 FILLER_1_193
*558 FILLER_1_205
*559 FILLER_1_217
*560 FILLER_1_223
*561 FILLER_1_225
*562 FILLER_1_237
*563 FILLER_1_249
*564 FILLER_1_26
*565 FILLER_1_261
*566 FILLER_1_273
*567 FILLER_1_279
*568 FILLER_1_281
*569 FILLER_1_293
*570 FILLER_1_3
*571 FILLER_1_32
*572 FILLER_1_54
*573 FILLER_1_57
*574 FILLER_1_80
*575 FILLER_1_92
*576 FILLER_20_102
*577 FILLER_20_114
*578 FILLER_20_126
*579 FILLER_20_138
*580 FILLER_20_141
*581 FILLER_20_153
*582 FILLER_20_165
*583 FILLER_20_177
*584 FILLER_20_189
*585 FILLER_20_195
*586 FILLER_20_197
*587 FILLER_20_20
*588 FILLER_20_209
*589 FILLER_20_221
*590 FILLER_20_233
*591 FILLER_20_245
*592 FILLER_20_251
*593 FILLER_20_253
*594 FILLER_20_26
*595 FILLER_20_265
*596 FILLER_20_277
*597 FILLER_20_289
*598 FILLER_20_29
*599 FILLER_20_297
*600 FILLER_20_3
*601 FILLER_20_37
*602 FILLER_20_49
*603 FILLER_20_64
*604 FILLER_20_71
*605 FILLER_20_8
*606 FILLER_20_82
*607 FILLER_20_85
*608 FILLER_20_90
*609 FILLER_21_103
*610 FILLER_21_111
*611 FILLER_21_113
*612 FILLER_21_125
*613 FILLER_21_137
*614 FILLER_21_149
*615 FILLER_21_15
*616 FILLER_21_161
*617 FILLER_21_167
*618 FILLER_21_169
*619 FILLER_21_181
*620 FILLER_21_193
*621 FILLER_21_205
*622 FILLER_21_217
*623 FILLER_21_223
*624 FILLER_21_225
*625 FILLER_21_23
*626 FILLER_21_237
*627 FILLER_21_249
*628 FILLER_21_261
*629 FILLER_21_27
*630 FILLER_21_273
*631 FILLER_21_279
*632 FILLER_21_281
*633 FILLER_21_293
*634 FILLER_21_3
*635 FILLER_21_38
*636 FILLER_21_49
*637 FILLER_21_55
*638 FILLER_21_57
*639 FILLER_21_69
*640 FILLER_21_79
*641 FILLER_21_91
*642 FILLER_22_10
*643 FILLER_22_109
*644 FILLER_22_121
*645 FILLER_22_133
*646 FILLER_22_139
*647 FILLER_22_141
*648 FILLER_22_153
*649 FILLER_22_165
*650 FILLER_22_177
*651 FILLER_22_189
*652 FILLER_22_195
*653 FILLER_22_197
*654 FILLER_22_209
*655 FILLER_22_22
*656 FILLER_22_221
*657 FILLER_22_233
*658 FILLER_22_245
*659 FILLER_22_251
*660 FILLER_22_253
*661 FILLER_22_265
*662 FILLER_22_277
*663 FILLER_22_289
*664 FILLER_22_29
*665 FILLER_22_297
*666 FILLER_22_3
*667 FILLER_22_41
*668 FILLER_22_53
*669 FILLER_22_66
*670 FILLER_22_78
*671 FILLER_22_85
*672 FILLER_22_98
*673 FILLER_23_100
*674 FILLER_23_104
*675 FILLER_23_113
*676 FILLER_23_118
*677 FILLER_23_130
*678 FILLER_23_142
*679 FILLER_23_154
*680 FILLER_23_166
*681 FILLER_23_169
*682 FILLER_23_181
*683 FILLER_23_193
*684 FILLER_23_20
*685 FILLER_23_205
*686 FILLER_23_217
*687 FILLER_23_223
*688 FILLER_23_225
*689 FILLER_23_237
*690 FILLER_23_249
*691 FILLER_23_261
*692 FILLER_23_273
*693 FILLER_23_279
*694 FILLER_23_281
*695 FILLER_23_293
*696 FILLER_23_3
*697 FILLER_23_32
*698 FILLER_23_44
*699 FILLER_23_50
*700 FILLER_23_54
*701 FILLER_23_57
*702 FILLER_23_62
*703 FILLER_23_74
*704 FILLER_23_8
*705 FILLER_23_85
*706 FILLER_23_94
*707 FILLER_24_106
*708 FILLER_24_113
*709 FILLER_24_12
*710 FILLER_24_121
*711 FILLER_24_128
*712 FILLER_24_141
*713 FILLER_24_153
*714 FILLER_24_165
*715 FILLER_24_177
*716 FILLER_24_189
*717 FILLER_24_195
*718 FILLER_24_197
*719 FILLER_24_209
*720 FILLER_24_221
*721 FILLER_24_233
*722 FILLER_24_245
*723 FILLER_24_251
*724 FILLER_24_253
*725 FILLER_24_26
*726 FILLER_24_265
*727 FILLER_24_277
*728 FILLER_24_289
*729 FILLER_24_29
*730 FILLER_24_297
*731 FILLER_24_3
*732 FILLER_24_40
*733 FILLER_24_50
*734 FILLER_24_61
*735 FILLER_24_73
*736 FILLER_24_81
*737 FILLER_24_85
*738 FILLER_24_97
*739 FILLER_25_102
*740 FILLER_25_108
*741 FILLER_25_113
*742 FILLER_25_125
*743 FILLER_25_133
*744 FILLER_25_139
*745 FILLER_25_15
*746 FILLER_25_151
*747 FILLER_25_163
*748 FILLER_25_167
*749 FILLER_25_169
*750 FILLER_25_181
*751 FILLER_25_193
*752 FILLER_25_205
*753 FILLER_25_217
*754 FILLER_25_223
*755 FILLER_25_225
*756 FILLER_25_237
*757 FILLER_25_249
*758 FILLER_25_261
*759 FILLER_25_27
*760 FILLER_25_273
*761 FILLER_25_279
*762 FILLER_25_281
*763 FILLER_25_293
*764 FILLER_25_3
*765 FILLER_25_35
*766 FILLER_25_47
*767 FILLER_25_55
*768 FILLER_25_57
*769 FILLER_25_80
*770 FILLER_25_90
*771 FILLER_26_100
*772 FILLER_26_106
*773 FILLER_26_120
*774 FILLER_26_130
*775 FILLER_26_138
*776 FILLER_26_141
*777 FILLER_26_15
*778 FILLER_26_153
*779 FILLER_26_165
*780 FILLER_26_177
*781 FILLER_26_189
*782 FILLER_26_195
*783 FILLER_26_197
*784 FILLER_26_209
*785 FILLER_26_221
*786 FILLER_26_233
*787 FILLER_26_245
*788 FILLER_26_251
*789 FILLER_26_253
*790 FILLER_26_265
*791 FILLER_26_27
*792 FILLER_26_277
*793 FILLER_26_289
*794 FILLER_26_29
*795 FILLER_26_297
*796 FILLER_26_3
*797 FILLER_26_36
*798 FILLER_26_54
*799 FILLER_26_63
*800 FILLER_26_70
*801 FILLER_26_82
*802 FILLER_26_85
*803 FILLER_26_92
*804 FILLER_27_104
*805 FILLER_27_113
*806 FILLER_27_131
*807 FILLER_27_143
*808 FILLER_27_155
*809 FILLER_27_167
*810 FILLER_27_169
*811 FILLER_27_181
*812 FILLER_27_193
*813 FILLER_27_20
*814 FILLER_27_205
*815 FILLER_27_217
*816 FILLER_27_223
*817 FILLER_27_225
*818 FILLER_27_237
*819 FILLER_27_249
*820 FILLER_27_261
*821 FILLER_27_273
*822 FILLER_27_279
*823 FILLER_27_281
*824 FILLER_27_293
*825 FILLER_27_3
*826 FILLER_27_32
*827 FILLER_27_44
*828 FILLER_27_54
*829 FILLER_27_57
*830 FILLER_27_68
*831 FILLER_27_75
*832 FILLER_27_8
*833 FILLER_27_83
*834 FILLER_27_93
*835 FILLER_27_97
*836 FILLER_28_103
*837 FILLER_28_107
*838 FILLER_28_119
*839 FILLER_28_131
*840 FILLER_28_139
*841 FILLER_28_141
*842 FILLER_28_15
*843 FILLER_28_153
*844 FILLER_28_165
*845 FILLER_28_177
*846 FILLER_28_189
*847 FILLER_28_195
*848 FILLER_28_197
*849 FILLER_28_209
*850 FILLER_28_221
*851 FILLER_28_233
*852 FILLER_28_245
*853 FILLER_28_251
*854 FILLER_28_253
*855 FILLER_28_265
*856 FILLER_28_27
*857 FILLER_28_277
*858 FILLER_28_289
*859 FILLER_28_29
*860 FILLER_28_297
*861 FILLER_28_3
*862 FILLER_28_39
*863 FILLER_28_51
*864 FILLER_28_56
*865 FILLER_28_60
*866 FILLER_28_69
*867 FILLER_28_82
*868 FILLER_28_85
*869 FILLER_28_97
*870 FILLER_29_106
*871 FILLER_29_113
*872 FILLER_29_117
*873 FILLER_29_123
*874 FILLER_29_130
*875 FILLER_29_142
*876 FILLER_29_15
*877 FILLER_29_154
*878 FILLER_29_166
*879 FILLER_29_169
*880 FILLER_29_181
*881 FILLER_29_193
*882 FILLER_29_205
*883 FILLER_29_217
*884 FILLER_29_22
*885 FILLER_29_223
*886 FILLER_29_225
*887 FILLER_29_237
*888 FILLER_29_249
*889 FILLER_29_261
*890 FILLER_29_273
*891 FILLER_29_279
*892 FILLER_29_281
*893 FILLER_29_293
*894 FILLER_29_3
*895 FILLER_29_34
*896 FILLER_29_40
*897 FILLER_29_44
*898 FILLER_29_48
*899 FILLER_29_54
*900 FILLER_29_57
*901 FILLER_29_68
*902 FILLER_29_78
*903 FILLER_29_87
*904 FILLER_29_99
*905 FILLER_2_109
*906 FILLER_2_121
*907 FILLER_2_133
*908 FILLER_2_139
*909 FILLER_2_141
*910 FILLER_2_153
*911 FILLER_2_165
*912 FILLER_2_177
*913 FILLER_2_189
*914 FILLER_2_195
*915 FILLER_2_197
*916 FILLER_2_209
*917 FILLER_2_221
*918 FILLER_2_233
*919 FILLER_2_245
*920 FILLER_2_251
*921 FILLER_2_253
*922 FILLER_2_26
*923 FILLER_2_265
*924 FILLER_2_277
*925 FILLER_2_289
*926 FILLER_2_29
*927 FILLER_2_297
*928 FILLER_2_3
*929 FILLER_2_41
*930 FILLER_2_45
*931 FILLER_2_67
*932 FILLER_2_79
*933 FILLER_2_83
*934 FILLER_2_85
*935 FILLER_2_97
*936 FILLER_30_104
*937 FILLER_30_116
*938 FILLER_30_124
*939 FILLER_30_131
*940 FILLER_30_139
*941 FILLER_30_141
*942 FILLER_30_15
*943 FILLER_30_153
*944 FILLER_30_165
*945 FILLER_30_177
*946 FILLER_30_189
*947 FILLER_30_195
*948 FILLER_30_197
*949 FILLER_30_209
*950 FILLER_30_221
*951 FILLER_30_23
*952 FILLER_30_233
*953 FILLER_30_245
*954 FILLER_30_251
*955 FILLER_30_253
*956 FILLER_30_265
*957 FILLER_30_27
*958 FILLER_30_277
*959 FILLER_30_289
*960 FILLER_30_29
*961 FILLER_30_297
*962 FILLER_30_3
*963 FILLER_30_41
*964 FILLER_30_50
*965 FILLER_30_58
*966 FILLER_30_65
*967 FILLER_30_75
*968 FILLER_30_82
*969 FILLER_30_85
*970 FILLER_30_92
*971 FILLER_31_103
*972 FILLER_31_110
*973 FILLER_31_113
*974 FILLER_31_118
*975 FILLER_31_130
*976 FILLER_31_142
*977 FILLER_31_15
*978 FILLER_31_154
*979 FILLER_31_166
*980 FILLER_31_169
*981 FILLER_31_181
*982 FILLER_31_193
*983 FILLER_31_205
*984 FILLER_31_217
*985 FILLER_31_223
*986 FILLER_31_225
*987 FILLER_31_237
*988 FILLER_31_249
*989 FILLER_31_261
*990 FILLER_31_27
*991 FILLER_31_273
*992 FILLER_31_279
*993 FILLER_31_281
*994 FILLER_31_293
*995 FILLER_31_3
*996 FILLER_31_32
*997 FILLER_31_42
*998 FILLER_31_49
*999 FILLER_31_55
*1000 FILLER_31_57
*1001 FILLER_31_71
*1002 FILLER_31_77
*1003 FILLER_31_83
*1004 FILLER_31_91
*1005 FILLER_32_109
*1006 FILLER_32_117
*1007 FILLER_32_122
*1008 FILLER_32_134
*1009 FILLER_32_141
*1010 FILLER_32_15
*1011 FILLER_32_153
*1012 FILLER_32_165
*1013 FILLER_32_177
*1014 FILLER_32_189
*1015 FILLER_32_195
*1016 FILLER_32_197
*1017 FILLER_32_209
*1018 FILLER_32_221
*1019 FILLER_32_233
*1020 FILLER_32_245
*1021 FILLER_32_251
*1022 FILLER_32_253
*1023 FILLER_32_265
*1024 FILLER_32_27
*1025 FILLER_32_277
*1026 FILLER_32_289
*1027 FILLER_32_29
*1028 FILLER_32_297
*1029 FILLER_32_3
*1030 FILLER_32_41
*1031 FILLER_32_47
*1032 FILLER_32_54
*1033 FILLER_32_62
*1034 FILLER_32_70
*1035 FILLER_32_79
*1036 FILLER_32_83
*1037 FILLER_32_85
*1038 FILLER_32_97
*1039 FILLER_33_105
*1040 FILLER_33_111
*1041 FILLER_33_113
*1042 FILLER_33_125
*1043 FILLER_33_137
*1044 FILLER_33_149
*1045 FILLER_33_15
*1046 FILLER_33_161
*1047 FILLER_33_167
*1048 FILLER_33_169
*1049 FILLER_33_181
*1050 FILLER_33_193
*1051 FILLER_33_205
*1052 FILLER_33_217
*1053 FILLER_33_223
*1054 FILLER_33_225
*1055 FILLER_33_237
*1056 FILLER_33_249
*1057 FILLER_33_261
*1058 FILLER_33_27
*1059 FILLER_33_273
*1060 FILLER_33_279
*1061 FILLER_33_281
*1062 FILLER_33_293
*1063 FILLER_33_3
*1064 FILLER_33_39
*1065 FILLER_33_46
*1066 FILLER_33_50
*1067 FILLER_33_54
*1068 FILLER_33_57
*1069 FILLER_33_66
*1070 FILLER_33_81
*1071 FILLER_33_93
*1072 FILLER_34_108
*1073 FILLER_34_115
*1074 FILLER_34_127
*1075 FILLER_34_139
*1076 FILLER_34_141
*1077 FILLER_34_15
*1078 FILLER_34_153
*1079 FILLER_34_165
*1080 FILLER_34_177
*1081 FILLER_34_189
*1082 FILLER_34_195
*1083 FILLER_34_197
*1084 FILLER_34_209
*1085 FILLER_34_221
*1086 FILLER_34_233
*1087 FILLER_34_245
*1088 FILLER_34_251
*1089 FILLER_34_253
*1090 FILLER_34_265
*1091 FILLER_34_27
*1092 FILLER_34_277
*1093 FILLER_34_289
*1094 FILLER_34_29
*1095 FILLER_34_297
*1096 FILLER_34_3
*1097 FILLER_34_37
*1098 FILLER_34_47
*1099 FILLER_34_60
*1100 FILLER_34_69
*1101 FILLER_34_75
*1102 FILLER_34_79
*1103 FILLER_34_83
*1104 FILLER_34_85
*1105 FILLER_34_98
*1106 FILLER_35_102
*1107 FILLER_35_110
*1108 FILLER_35_113
*1109 FILLER_35_122
*1110 FILLER_35_132
*1111 FILLER_35_144
*1112 FILLER_35_15
*1113 FILLER_35_156
*1114 FILLER_35_169
*1115 FILLER_35_181
*1116 FILLER_35_193
*1117 FILLER_35_205
*1118 FILLER_35_217
*1119 FILLER_35_223
*1120 FILLER_35_225
*1121 FILLER_35_237
*1122 FILLER_35_249
*1123 FILLER_35_261
*1124 FILLER_35_27
*1125 FILLER_35_273
*1126 FILLER_35_279
*1127 FILLER_35_281
*1128 FILLER_35_293
*1129 FILLER_35_3
*1130 FILLER_35_39
*1131 FILLER_35_47
*1132 FILLER_35_52
*1133 FILLER_35_57
*1134 FILLER_35_69
*1135 FILLER_35_81
*1136 FILLER_35_89
*1137 FILLER_35_94
*1138 FILLER_36_103
*1139 FILLER_36_109
*1140 FILLER_36_117
*1141 FILLER_36_125
*1142 FILLER_36_137
*1143 FILLER_36_141
*1144 FILLER_36_15
*1145 FILLER_36_153
*1146 FILLER_36_165
*1147 FILLER_36_177
*1148 FILLER_36_189
*1149 FILLER_36_195
*1150 FILLER_36_197
*1151 FILLER_36_209
*1152 FILLER_36_221
*1153 FILLER_36_233
*1154 FILLER_36_245
*1155 FILLER_36_251
*1156 FILLER_36_253
*1157 FILLER_36_265
*1158 FILLER_36_27
*1159 FILLER_36_277
*1160 FILLER_36_289
*1161 FILLER_36_29
*1162 FILLER_36_297
*1163 FILLER_36_3
*1164 FILLER_36_41
*1165 FILLER_36_45
*1166 FILLER_36_49
*1167 FILLER_36_60
*1168 FILLER_36_73
*1169 FILLER_36_81
*1170 FILLER_36_85
*1171 FILLER_36_89
*1172 FILLER_36_95
*1173 FILLER_37_104
*1174 FILLER_37_110
*1175 FILLER_37_113
*1176 FILLER_37_123
*1177 FILLER_37_135
*1178 FILLER_37_147
*1179 FILLER_37_15
*1180 FILLER_37_159
*1181 FILLER_37_167
*1182 FILLER_37_169
*1183 FILLER_37_181
*1184 FILLER_37_193
*1185 FILLER_37_205
*1186 FILLER_37_217
*1187 FILLER_37_223
*1188 FILLER_37_225
*1189 FILLER_37_237
*1190 FILLER_37_249
*1191 FILLER_37_261
*1192 FILLER_37_27
*1193 FILLER_37_273
*1194 FILLER_37_279
*1195 FILLER_37_281
*1196 FILLER_37_293
*1197 FILLER_37_3
*1198 FILLER_37_33
*1199 FILLER_37_42
*1200 FILLER_37_49
*1201 FILLER_37_55
*1202 FILLER_37_57
*1203 FILLER_37_68
*1204 FILLER_37_76
*1205 FILLER_37_84
*1206 FILLER_37_96
*1207 FILLER_38_102
*1208 FILLER_38_111
*1209 FILLER_38_118
*1210 FILLER_38_130
*1211 FILLER_38_138
*1212 FILLER_38_141
*1213 FILLER_38_15
*1214 FILLER_38_153
*1215 FILLER_38_165
*1216 FILLER_38_177
*1217 FILLER_38_189
*1218 FILLER_38_195
*1219 FILLER_38_197
*1220 FILLER_38_209
*1221 FILLER_38_221
*1222 FILLER_38_233
*1223 FILLER_38_245
*1224 FILLER_38_251
*1225 FILLER_38_253
*1226 FILLER_38_265
*1227 FILLER_38_27
*1228 FILLER_38_277
*1229 FILLER_38_289
*1230 FILLER_38_29
*1231 FILLER_38_297
*1232 FILLER_38_3
*1233 FILLER_38_37
*1234 FILLER_38_46
*1235 FILLER_38_58
*1236 FILLER_38_70
*1237 FILLER_38_79
*1238 FILLER_38_83
*1239 FILLER_38_85
*1240 FILLER_38_91
*1241 FILLER_38_95
*1242 FILLER_39_10
*1243 FILLER_39_108
*1244 FILLER_39_113
*1245 FILLER_39_121
*1246 FILLER_39_129
*1247 FILLER_39_141
*1248 FILLER_39_153
*1249 FILLER_39_165
*1250 FILLER_39_169
*1251 FILLER_39_181
*1252 FILLER_39_193
*1253 FILLER_39_205
*1254 FILLER_39_217
*1255 FILLER_39_22
*1256 FILLER_39_223
*1257 FILLER_39_225
*1258 FILLER_39_237
*1259 FILLER_39_249
*1260 FILLER_39_261
*1261 FILLER_39_273
*1262 FILLER_39_279
*1263 FILLER_39_281
*1264 FILLER_39_293
*1265 FILLER_39_3
*1266 FILLER_39_34
*1267 FILLER_39_46
*1268 FILLER_39_53
*1269 FILLER_39_57
*1270 FILLER_39_77
*1271 FILLER_39_88
*1272 FILLER_3_103
*1273 FILLER_3_111
*1274 FILLER_3_113
*1275 FILLER_3_125
*1276 FILLER_3_137
*1277 FILLER_3_149
*1278 FILLER_3_161
*1279 FILLER_3_167
*1280 FILLER_3_169
*1281 FILLER_3_181
*1282 FILLER_3_193
*1283 FILLER_3_205
*1284 FILLER_3_217
*1285 FILLER_3_223
*1286 FILLER_3_225
*1287 FILLER_3_237
*1288 FILLER_3_249
*1289 FILLER_3_261
*1290 FILLER_3_273
*1291 FILLER_3_279
*1292 FILLER_3_28
*1293 FILLER_3_281
*1294 FILLER_3_293
*1295 FILLER_3_3
*1296 FILLER_3_32
*1297 FILLER_3_54
*1298 FILLER_3_57
*1299 FILLER_3_79
*1300 FILLER_3_91
*1301 FILLER_40_106
*1302 FILLER_40_112
*1303 FILLER_40_123
*1304 FILLER_40_133
*1305 FILLER_40_139
*1306 FILLER_40_141
*1307 FILLER_40_153
*1308 FILLER_40_165
*1309 FILLER_40_177
*1310 FILLER_40_189
*1311 FILLER_40_19
*1312 FILLER_40_195
*1313 FILLER_40_197
*1314 FILLER_40_209
*1315 FILLER_40_221
*1316 FILLER_40_233
*1317 FILLER_40_245
*1318 FILLER_40_251
*1319 FILLER_40_253
*1320 FILLER_40_26
*1321 FILLER_40_265
*1322 FILLER_40_277
*1323 FILLER_40_289
*1324 FILLER_40_29
*1325 FILLER_40_297
*1326 FILLER_40_3
*1327 FILLER_40_41
*1328 FILLER_40_53
*1329 FILLER_40_65
*1330 FILLER_40_77
*1331 FILLER_40_83
*1332 FILLER_40_85
*1333 FILLER_40_89
*1334 FILLER_40_98
*1335 FILLER_41_102
*1336 FILLER_41_110
*1337 FILLER_41_113
*1338 FILLER_41_125
*1339 FILLER_41_137
*1340 FILLER_41_149
*1341 FILLER_41_15
*1342 FILLER_41_161
*1343 FILLER_41_167
*1344 FILLER_41_169
*1345 FILLER_41_181
*1346 FILLER_41_193
*1347 FILLER_41_205
*1348 FILLER_41_217
*1349 FILLER_41_223
*1350 FILLER_41_225
*1351 FILLER_41_237
*1352 FILLER_41_249
*1353 FILLER_41_261
*1354 FILLER_41_273
*1355 FILLER_41_279
*1356 FILLER_41_281
*1357 FILLER_41_293
*1358 FILLER_41_3
*1359 FILLER_41_35
*1360 FILLER_41_47
*1361 FILLER_41_55
*1362 FILLER_41_57
*1363 FILLER_41_69
*1364 FILLER_41_81
*1365 FILLER_41_93
*1366 FILLER_42_109
*1367 FILLER_42_121
*1368 FILLER_42_133
*1369 FILLER_42_139
*1370 FILLER_42_141
*1371 FILLER_42_153
*1372 FILLER_42_16
*1373 FILLER_42_165
*1374 FILLER_42_177
*1375 FILLER_42_189
*1376 FILLER_42_195
*1377 FILLER_42_197
*1378 FILLER_42_209
*1379 FILLER_42_22
*1380 FILLER_42_221
*1381 FILLER_42_233
*1382 FILLER_42_245
*1383 FILLER_42_251
*1384 FILLER_42_253
*1385 FILLER_42_265
*1386 FILLER_42_277
*1387 FILLER_42_289
*1388 FILLER_42_29
*1389 FILLER_42_297
*1390 FILLER_42_3
*1391 FILLER_42_41
*1392 FILLER_42_53
*1393 FILLER_42_65
*1394 FILLER_42_77
*1395 FILLER_42_8
*1396 FILLER_42_83
*1397 FILLER_42_85
*1398 FILLER_42_97
*1399 FILLER_43_105
*1400 FILLER_43_111
*1401 FILLER_43_113
*1402 FILLER_43_125
*1403 FILLER_43_137
*1404 FILLER_43_149
*1405 FILLER_43_15
*1406 FILLER_43_161
*1407 FILLER_43_167
*1408 FILLER_43_169
*1409 FILLER_43_181
*1410 FILLER_43_193
*1411 FILLER_43_205
*1412 FILLER_43_217
*1413 FILLER_43_223
*1414 FILLER_43_225
*1415 FILLER_43_237
*1416 FILLER_43_249
*1417 FILLER_43_261
*1418 FILLER_43_27
*1419 FILLER_43_273
*1420 FILLER_43_279
*1421 FILLER_43_281
*1422 FILLER_43_293
*1423 FILLER_43_3
*1424 FILLER_43_39
*1425 FILLER_43_51
*1426 FILLER_43_55
*1427 FILLER_43_57
*1428 FILLER_43_69
*1429 FILLER_43_81
*1430 FILLER_43_93
*1431 FILLER_44_109
*1432 FILLER_44_121
*1433 FILLER_44_133
*1434 FILLER_44_139
*1435 FILLER_44_141
*1436 FILLER_44_15
*1437 FILLER_44_153
*1438 FILLER_44_165
*1439 FILLER_44_177
*1440 FILLER_44_189
*1441 FILLER_44_195
*1442 FILLER_44_197
*1443 FILLER_44_209
*1444 FILLER_44_221
*1445 FILLER_44_233
*1446 FILLER_44_245
*1447 FILLER_44_251
*1448 FILLER_44_253
*1449 FILLER_44_265
*1450 FILLER_44_27
*1451 FILLER_44_277
*1452 FILLER_44_289
*1453 FILLER_44_29
*1454 FILLER_44_297
*1455 FILLER_44_3
*1456 FILLER_44_41
*1457 FILLER_44_53
*1458 FILLER_44_65
*1459 FILLER_44_77
*1460 FILLER_44_83
*1461 FILLER_44_85
*1462 FILLER_44_97
*1463 FILLER_45_105
*1464 FILLER_45_111
*1465 FILLER_45_113
*1466 FILLER_45_125
*1467 FILLER_45_13
*1468 FILLER_45_137
*1469 FILLER_45_149
*1470 FILLER_45_161
*1471 FILLER_45_167
*1472 FILLER_45_169
*1473 FILLER_45_181
*1474 FILLER_45_193
*1475 FILLER_45_205
*1476 FILLER_45_217
*1477 FILLER_45_223
*1478 FILLER_45_225
*1479 FILLER_45_237
*1480 FILLER_45_249
*1481 FILLER_45_25
*1482 FILLER_45_261
*1483 FILLER_45_273
*1484 FILLER_45_279
*1485 FILLER_45_281
*1486 FILLER_45_293
*1487 FILLER_45_3
*1488 FILLER_45_37
*1489 FILLER_45_49
*1490 FILLER_45_55
*1491 FILLER_45_57
*1492 FILLER_45_69
*1493 FILLER_45_81
*1494 FILLER_45_93
*1495 FILLER_46_109
*1496 FILLER_46_121
*1497 FILLER_46_133
*1498 FILLER_46_139
*1499 FILLER_46_141
*1500 FILLER_46_15
*1501 FILLER_46_153
*1502 FILLER_46_165
*1503 FILLER_46_177
*1504 FILLER_46_189
*1505 FILLER_46_195
*1506 FILLER_46_197
*1507 FILLER_46_209
*1508 FILLER_46_221
*1509 FILLER_46_233
*1510 FILLER_46_245
*1511 FILLER_46_251
*1512 FILLER_46_253
*1513 FILLER_46_265
*1514 FILLER_46_27
*1515 FILLER_46_277
*1516 FILLER_46_289
*1517 FILLER_46_29
*1518 FILLER_46_297
*1519 FILLER_46_3
*1520 FILLER_46_41
*1521 FILLER_46_53
*1522 FILLER_46_65
*1523 FILLER_46_77
*1524 FILLER_46_83
*1525 FILLER_46_85
*1526 FILLER_46_97
*1527 FILLER_47_105
*1528 FILLER_47_111
*1529 FILLER_47_113
*1530 FILLER_47_125
*1531 FILLER_47_137
*1532 FILLER_47_149
*1533 FILLER_47_15
*1534 FILLER_47_161
*1535 FILLER_47_167
*1536 FILLER_47_169
*1537 FILLER_47_181
*1538 FILLER_47_193
*1539 FILLER_47_205
*1540 FILLER_47_217
*1541 FILLER_47_223
*1542 FILLER_47_225
*1543 FILLER_47_237
*1544 FILLER_47_249
*1545 FILLER_47_261
*1546 FILLER_47_27
*1547 FILLER_47_273
*1548 FILLER_47_279
*1549 FILLER_47_281
*1550 FILLER_47_293
*1551 FILLER_47_3
*1552 FILLER_47_39
*1553 FILLER_47_51
*1554 FILLER_47_55
*1555 FILLER_47_57
*1556 FILLER_47_69
*1557 FILLER_47_81
*1558 FILLER_47_93
*1559 FILLER_48_109
*1560 FILLER_48_121
*1561 FILLER_48_133
*1562 FILLER_48_139
*1563 FILLER_48_141
*1564 FILLER_48_15
*1565 FILLER_48_153
*1566 FILLER_48_165
*1567 FILLER_48_177
*1568 FILLER_48_189
*1569 FILLER_48_195
*1570 FILLER_48_197
*1571 FILLER_48_209
*1572 FILLER_48_221
*1573 FILLER_48_233
*1574 FILLER_48_245
*1575 FILLER_48_251
*1576 FILLER_48_253
*1577 FILLER_48_265
*1578 FILLER_48_27
*1579 FILLER_48_277
*1580 FILLER_48_289
*1581 FILLER_48_29
*1582 FILLER_48_297
*1583 FILLER_48_3
*1584 FILLER_48_41
*1585 FILLER_48_53
*1586 FILLER_48_65
*1587 FILLER_48_77
*1588 FILLER_48_83
*1589 FILLER_48_85
*1590 FILLER_48_97
*1591 FILLER_49_105
*1592 FILLER_49_111
*1593 FILLER_49_113
*1594 FILLER_49_125
*1595 FILLER_49_137
*1596 FILLER_49_149
*1597 FILLER_49_15
*1598 FILLER_49_161
*1599 FILLER_49_167
*1600 FILLER_49_169
*1601 FILLER_49_181
*1602 FILLER_49_193
*1603 FILLER_49_205
*1604 FILLER_49_217
*1605 FILLER_49_223
*1606 FILLER_49_225
*1607 FILLER_49_237
*1608 FILLER_49_249
*1609 FILLER_49_261
*1610 FILLER_49_27
*1611 FILLER_49_273
*1612 FILLER_49_279
*1613 FILLER_49_281
*1614 FILLER_49_293
*1615 FILLER_49_3
*1616 FILLER_49_39
*1617 FILLER_49_51
*1618 FILLER_49_55
*1619 FILLER_49_57
*1620 FILLER_49_69
*1621 FILLER_49_81
*1622 FILLER_49_93
*1623 FILLER_4_109
*1624 FILLER_4_121
*1625 FILLER_4_133
*1626 FILLER_4_139
*1627 FILLER_4_141
*1628 FILLER_4_153
*1629 FILLER_4_165
*1630 FILLER_4_177
*1631 FILLER_4_189
*1632 FILLER_4_195
*1633 FILLER_4_197
*1634 FILLER_4_209
*1635 FILLER_4_221
*1636 FILLER_4_233