*SPEF "ieee 1481-1999"
*DESIGN "yupferris_bitslam"
*DATE "11:11:11 Fri 11 11, 1111"
*VENDOR "OpenRCX"
*PROGRAM "Parallel Extraction"
*VERSION "1.0"
*DESIGN_FLOW "NAME_SCOPE LOCAL" "PIN_CAP NONE"
*DIVIDER /
*DELIMITER :
*BUS_DELIMITER []
*T_UNIT 1 NS
*C_UNIT 1 PF
*R_UNIT 1 OHM
*L_UNIT 1 HENRY

*NAME_MAP
*1 io_in[0]
*2 io_in[1]
*3 io_in[2]
*4 io_in[3]
*5 io_in[4]
*6 io_in[5]
*7 io_in[6]
*8 io_in[7]
*9 io_out[0]
*10 io_out[1]
*11 io_out[2]
*12 io_out[3]
*13 net8
*14 net9
*15 net10
*16 net11
*19 _000_
*20 _001_
*21 _002_
*22 _003_
*23 _004_
*24 _005_
*25 _006_
*26 _007_
*27 _008_
*28 _009_
*29 _010_
*30 _011_
*31 _012_
*32 _013_
*33 _014_
*34 _015_
*35 _016_
*36 _017_
*37 _018_
*38 _019_
*39 _020_
*40 _021_
*41 _022_
*42 _023_
*43 _024_
*44 _025_
*45 _026_
*46 _027_
*47 _028_
*48 _029_
*49 _030_
*50 _031_
*51 _032_
*52 _033_
*53 _034_
*54 _035_
*55 _036_
*56 _037_
*57 _038_
*58 _039_
*59 _040_
*60 _041_
*61 _042_
*62 _043_
*63 _044_
*64 _045_
*65 _046_
*66 _047_
*67 _048_
*68 _049_
*69 _050_
*70 _051_
*71 _052_
*72 _053_
*73 _054_
*74 _055_
*75 _056_
*76 _057_
*77 _058_
*78 _059_
*79 _060_
*80 _061_
*81 _062_
*82 _063_
*83 _064_
*84 _065_
*85 _066_
*86 _067_
*87 _068_
*88 _069_
*89 _070_
*90 _071_
*91 _072_
*92 _073_
*93 _074_
*94 _075_
*95 _076_
*96 _077_
*97 _078_
*98 _079_
*99 _080_
*100 _081_
*101 _082_
*102 _083_
*103 _084_
*104 _085_
*105 _086_
*106 _087_
*107 _088_
*108 _089_
*109 _090_
*110 _091_
*111 _092_
*112 _093_
*113 _094_
*114 _095_
*115 _096_
*116 _097_
*117 _098_
*118 _099_
*119 _100_
*120 _101_
*121 _102_
*122 _103_
*123 _104_
*124 _105_
*125 _106_
*126 _107_
*127 _108_
*128 _109_
*129 _110_
*130 _111_
*131 _112_
*132 _113_
*133 _114_
*134 _115_
*135 _116_
*136 _117_
*137 _118_
*138 _119_
*139 _120_
*140 _121_
*141 _122_
*142 _123_
*143 _124_
*144 _125_
*145 _126_
*146 _127_
*147 _128_
*148 _129_
*149 _130_
*150 _131_
*151 _132_
*152 _133_
*153 _134_
*154 _135_
*155 _136_
*156 _137_
*157 _138_
*158 _139_
*159 _140_
*160 _141_
*161 _142_
*162 _143_
*163 _144_
*164 _145_
*165 _146_
*166 _147_
*167 _148_
*168 _149_
*169 _150_
*170 _151_
*171 _152_
*172 _153_
*173 _154_
*174 _155_
*175 _156_
*176 _157_
*177 _158_
*178 _159_
*179 _160_
*180 _161_
*181 _162_
*182 _163_
*183 _164_
*184 _165_
*185 _166_
*186 _167_
*187 _168_
*188 _169_
*189 _170_
*190 _171_
*191 _172_
*192 _173_
*193 _174_
*194 _175_
*195 _176_
*196 _177_
*197 _178_
*198 _179_
*199 _180_
*200 _181_
*201 _182_
*202 _183_
*203 _184_
*204 _185_
*205 _186_
*206 _187_
*207 _188_
*208 _189_
*209 _190_
*210 _191_
*211 _192_
*212 _193_
*213 _194_
*214 _195_
*215 _196_
*216 _197_
*217 _198_
*218 _199_
*219 _200_
*220 clknet_0_io_in[0]
*221 clknet_3_0__leaf_io_in[0]
*222 clknet_3_1__leaf_io_in[0]
*223 clknet_3_2__leaf_io_in[0]
*224 clknet_3_3__leaf_io_in[0]
*225 clknet_3_4__leaf_io_in[0]
*226 clknet_3_5__leaf_io_in[0]
*227 clknet_3_6__leaf_io_in[0]
*228 clknet_3_7__leaf_io_in[0]
*229 mixer\.voice0_out
*230 mixer\.voice0_volume\[0\]
*231 mixer\.voice0_volume\[1\]
*232 mixer\.voice0_volume\[2\]
*233 mixer\.voice1_out
*234 mixer\.voice1_volume\[0\]
*235 mixer\.voice1_volume\[1\]
*236 mixer\.voice1_volume\[2\]
*237 mixer_select
*238 net1
*239 net2
*240 net3
*241 net4
*242 net5
*243 net6
*244 net7
*245 voice0\.addr
*246 voice0\.clk_div_counter\[0\]
*247 voice0\.clk_div_counter\[1\]
*248 voice0\.clk_div_counter\[2\]
*249 voice0\.clk_div_counter\[3\]
*250 voice0\.clk_div_counter\[4\]
*251 voice0\.clk_div_counter\[5\]
*252 voice0\.lfsr\[1\]
*253 voice0\.lfsr\[2\]
*254 voice0\.lfsr\[3\]
*255 voice0\.lfsr\[4\]
*256 voice0\.lfsr\[5\]
*257 voice0\.lfsr\[6\]
*258 voice0\.lfsr\[7\]
*259 voice0\.lfsr\[8\]
*260 voice0\.lfsr\[9\]
*261 voice0\.lfsr_tap_mask\[0\]
*262 voice0\.lfsr_tap_mask\[1\]
*263 voice0\.lfsr_tap_mask\[2\]
*264 voice0\.lfsr_tap_mask\[3\]
*265 voice0\.max_clk_div_counter\[0\]
*266 voice0\.max_clk_div_counter\[1\]
*267 voice0\.max_clk_div_counter\[2\]
*268 voice0\.max_clk_div_counter\[3\]
*269 voice0\.max_clk_div_counter\[4\]
*270 voice0\.max_clk_div_counter\[5\]
*271 voice1\.clk_div_counter\[0\]
*272 voice1\.clk_div_counter\[1\]
*273 voice1\.clk_div_counter\[2\]
*274 voice1\.clk_div_counter\[3\]
*275 voice1\.clk_div_counter\[4\]
*276 voice1\.clk_div_counter\[5\]
*277 voice1\.lfsr\[1\]
*278 voice1\.lfsr\[2\]
*279 voice1\.lfsr\[3\]
*280 voice1\.lfsr\[4\]
*281 voice1\.lfsr\[5\]
*282 voice1\.lfsr\[6\]
*283 voice1\.lfsr\[7\]
*284 voice1\.lfsr\[8\]
*285 voice1\.lfsr\[9\]
*286 voice1\.lfsr_tap_mask\[0\]
*287 voice1\.lfsr_tap_mask\[1\]
*288 voice1\.lfsr_tap_mask\[2\]
*289 voice1\.lfsr_tap_mask\[3\]
*290 voice1\.max_clk_div_counter\[0\]
*291 voice1\.max_clk_div_counter\[1\]
*292 voice1\.max_clk_div_counter\[2\]
*293 voice1\.max_clk_div_counter\[3\]
*294 voice1\.max_clk_div_counter\[4\]
*295 voice1\.max_clk_div_counter\[5\]
*296 voice_select
*297 ANTENNA_1
*298 ANTENNA_2
*299 ANTENNA_3
*300 ANTENNA_4
*301 ANTENNA_5
*302 FILLER_0_103
*303 FILLER_0_110
*304 FILLER_0_113
*305 FILLER_0_131
*306 FILLER_0_135
*307 FILLER_0_139
*308 FILLER_0_141
*309 FILLER_0_159
*310 FILLER_0_167
*311 FILLER_0_169
*312 FILLER_0_178
*313 FILLER_0_190
*314 FILLER_0_197
*315 FILLER_0_209
*316 FILLER_0_221
*317 FILLER_0_225
*318 FILLER_0_237
*319 FILLER_0_249
*320 FILLER_0_253
*321 FILLER_0_26
*322 FILLER_0_265
*323 FILLER_0_277
*324 FILLER_0_281
*325 FILLER_0_29
*326 FILLER_0_293
*327 FILLER_0_3
*328 FILLER_0_37
*329 FILLER_0_54
*330 FILLER_0_57
*331 FILLER_0_79
*332 FILLER_0_83
*333 FILLER_0_85
*334 FILLER_0_9
*335 FILLER_10_103
*336 FILLER_10_115
*337 FILLER_10_133
*338 FILLER_10_139
*339 FILLER_10_141
*340 FILLER_10_153
*341 FILLER_10_165
*342 FILLER_10_177
*343 FILLER_10_189
*344 FILLER_10_195
*345 FILLER_10_197
*346 FILLER_10_209
*347 FILLER_10_21
*348 FILLER_10_221
*349 FILLER_10_233
*350 FILLER_10_245
*351 FILLER_10_251
*352 FILLER_10_253
*353 FILLER_10_265
*354 FILLER_10_27
*355 FILLER_10_277
*356 FILLER_10_289
*357 FILLER_10_29
*358 FILLER_10_297
*359 FILLER_10_3
*360 FILLER_10_48
*361 FILLER_10_60
*362 FILLER_10_79
*363 FILLER_10_83
*364 FILLER_10_85
*365 FILLER_11_105
*366 FILLER_11_111
*367 FILLER_11_113
*368 FILLER_11_125
*369 FILLER_11_130
*370 FILLER_11_142
*371 FILLER_11_154
*372 FILLER_11_166
*373 FILLER_11_169
*374 FILLER_11_181
*375 FILLER_11_193
*376 FILLER_11_205
*377 FILLER_11_217
*378 FILLER_11_223
*379 FILLER_11_225
*380 FILLER_11_237
*381 FILLER_11_249
*382 FILLER_11_261
*383 FILLER_11_273
*384 FILLER_11_279
*385 FILLER_11_281
*386 FILLER_11_293
*387 FILLER_11_3
*388 FILLER_11_36
*389 FILLER_11_48
*390 FILLER_11_57
*391 FILLER_11_69
*392 FILLER_11_8
*393 FILLER_11_93
*394 FILLER_12_109
*395 FILLER_12_121
*396 FILLER_12_133
*397 FILLER_12_139
*398 FILLER_12_141
*399 FILLER_12_153
*400 FILLER_12_165
*401 FILLER_12_184
*402 FILLER_12_197
*403 FILLER_12_209
*404 FILLER_12_21
*405 FILLER_12_221
*406 FILLER_12_233
*407 FILLER_12_245
*408 FILLER_12_251
*409 FILLER_12_253
*410 FILLER_12_265
*411 FILLER_12_27
*412 FILLER_12_277
*413 FILLER_12_289
*414 FILLER_12_29
*415 FILLER_12_297
*416 FILLER_12_3
*417 FILLER_12_49
*418 FILLER_12_69
*419 FILLER_12_81
*420 FILLER_12_85
*421 FILLER_12_97
*422 FILLER_13_104
*423 FILLER_13_113
*424 FILLER_13_122
*425 FILLER_13_132
*426 FILLER_13_144
*427 FILLER_13_15
*428 FILLER_13_156
*429 FILLER_13_169
*430 FILLER_13_181
*431 FILLER_13_193
*432 FILLER_13_205
*433 FILLER_13_217
*434 FILLER_13_223
*435 FILLER_13_225
*436 FILLER_13_237
*437 FILLER_13_249
*438 FILLER_13_261
*439 FILLER_13_273
*440 FILLER_13_279
*441 FILLER_13_281
*442 FILLER_13_293
*443 FILLER_13_3
*444 FILLER_13_32
*445 FILLER_13_54
*446 FILLER_13_57
*447 FILLER_13_69
*448 FILLER_13_74
*449 FILLER_13_9
*450 FILLER_13_92
*451 FILLER_14_103
*452 FILLER_14_115
*453 FILLER_14_123
*454 FILLER_14_131
*455 FILLER_14_139
*456 FILLER_14_141
*457 FILLER_14_153
*458 FILLER_14_157
*459 FILLER_14_164
*460 FILLER_14_176
*461 FILLER_14_188
*462 FILLER_14_197
*463 FILLER_14_209
*464 FILLER_14_221
*465 FILLER_14_233
*466 FILLER_14_245
*467 FILLER_14_251
*468 FILLER_14_253
*469 FILLER_14_26
*470 FILLER_14_265
*471 FILLER_14_277
*472 FILLER_14_289
*473 FILLER_14_29
*474 FILLER_14_297
*475 FILLER_14_3
*476 FILLER_14_35
*477 FILLER_14_52
*478 FILLER_14_72
*479 FILLER_14_85
*480 FILLER_14_9
*481 FILLER_15_103
*482 FILLER_15_111
*483 FILLER_15_113
*484 FILLER_15_123
*485 FILLER_15_131
*486 FILLER_15_142
*487 FILLER_15_154
*488 FILLER_15_161
*489 FILLER_15_167
*490 FILLER_15_169
*491 FILLER_15_17
*492 FILLER_15_181
*493 FILLER_15_193
*494 FILLER_15_205
*495 FILLER_15_217
*496 FILLER_15_223
*497 FILLER_15_225
*498 FILLER_15_237
*499 FILLER_15_249
*500 FILLER_15_261
*501 FILLER_15_273
*502 FILLER_15_279
*503 FILLER_15_281
*504 FILLER_15_293
*505 FILLER_15_3
*506 FILLER_15_34
*507 FILLER_15_54
*508 FILLER_15_57
*509 FILLER_15_62
*510 FILLER_15_81
*511 FILLER_15_85
*512 FILLER_15_9
*513 FILLER_16_101
*514 FILLER_16_105
*515 FILLER_16_118
*516 FILLER_16_130
*517 FILLER_16_138
*518 FILLER_16_141
*519 FILLER_16_153
*520 FILLER_16_165
*521 FILLER_16_177
*522 FILLER_16_189
*523 FILLER_16_195
*524 FILLER_16_197
*525 FILLER_16_209
*526 FILLER_16_21
*527 FILLER_16_221
*528 FILLER_16_233
*529 FILLER_16_245
*530 FILLER_16_251
*531 FILLER_16_253
*532 FILLER_16_265
*533 FILLER_16_27
*534 FILLER_16_277
*535 FILLER_16_289
*536 FILLER_16_29
*537 FILLER_16_297
*538 FILLER_16_3
*539 FILLER_16_47
*540 FILLER_16_54
*541 FILLER_16_62
*542 FILLER_16_66
*543 FILLER_16_75
*544 FILLER_16_82
*545 FILLER_16_85
*546 FILLER_16_97
*547 FILLER_17_102
*548 FILLER_17_110
*549 FILLER_17_113
*550 FILLER_17_123
*551 FILLER_17_131
*552 FILLER_17_136
*553 FILLER_17_148
*554 FILLER_17_152
*555 FILLER_17_164
*556 FILLER_17_169
*557 FILLER_17_181
*558 FILLER_17_193
*559 FILLER_17_205
*560 FILLER_17_21
*561 FILLER_17_217
*562 FILLER_17_223
*563 FILLER_17_225
*564 FILLER_17_237
*565 FILLER_17_249
*566 FILLER_17_261
*567 FILLER_17_273
*568 FILLER_17_279
*569 FILLER_17_281
*570 FILLER_17_29
*571 FILLER_17_293
*572 FILLER_17_3
*573 FILLER_17_34
*574 FILLER_17_41
*575 FILLER_17_48
*576 FILLER_17_57
*577 FILLER_17_68
*578 FILLER_17_90
*579 FILLER_18_108
*580 FILLER_18_125
*581 FILLER_18_134
*582 FILLER_18_141
*583 FILLER_18_153
*584 FILLER_18_165
*585 FILLER_18_177
*586 FILLER_18_189
*587 FILLER_18_195
*588 FILLER_18_197
*589 FILLER_18_209
*590 FILLER_18_21
*591 FILLER_18_221
*592 FILLER_18_233
*593 FILLER_18_245
*594 FILLER_18_251
*595 FILLER_18_253
*596 FILLER_18_265
*597 FILLER_18_27
*598 FILLER_18_277
*599 FILLER_18_289
*600 FILLER_18_29
*601 FILLER_18_297
*602 FILLER_18_3
*603 FILLER_18_38
*604 FILLER_18_45
*605 FILLER_18_52
*606 FILLER_18_67
*607 FILLER_18_71
*608 FILLER_18_75
*609 FILLER_18_82
*610 FILLER_18_85
*611 FILLER_18_91
*612 FILLER_18_95
*613 FILLER_19_106
*614 FILLER_19_113
*615 FILLER_19_121
*616 FILLER_19_133
*617 FILLER_19_145
*618 FILLER_19_15
*619 FILLER_19_154
*620 FILLER_19_164
*621 FILLER_19_169
*622 FILLER_19_181
*623 FILLER_19_193
*624 FILLER_19_205
*625 FILLER_19_217
*626 FILLER_19_223
*627 FILLER_19_225
*628 FILLER_19_23
*629 FILLER_19_237
*630 FILLER_19_249
*631 FILLER_19_261
*632 FILLER_19_273
*633 FILLER_19_279
*634 FILLER_19_281
*635 FILLER_19_293
*636 FILLER_19_3
*637 FILLER_19_33
*638 FILLER_19_46
*639 FILLER_19_50
*640 FILLER_19_54
*641 FILLER_19_57
*642 FILLER_19_72
*643 FILLER_19_8
*644 FILLER_19_80
*645 FILLER_19_87
*646 FILLER_19_94
*647 FILLER_1_100
*648 FILLER_1_110
*649 FILLER_1_113
*650 FILLER_1_131
*651 FILLER_1_15
*652 FILLER_1_151
*653 FILLER_1_166
*654 FILLER_1_169
*655 FILLER_1_181
*656 FILLER_1_193
*657 FILLER_1_205
*658 FILLER_1_217
*659 FILLER_1_223
*660 FILLER_1_225
*661 FILLER_1_237
*662 FILLER_1_249
*663 FILLER_1_261
*664 FILLER_1_273
*665 FILLER_1_279
*666 FILLER_1_281
*667 FILLER_1_293
*668 FILLER_1_3
*669 FILLER_1_36
*670 FILLER_1_48
*671 FILLER_1_57
*672 FILLER_1_63
*673 FILLER_1_80
*674 FILLER_20_106
*675 FILLER_20_111
*676 FILLER_20_122
*677 FILLER_20_126
*678 FILLER_20_130
*679 FILLER_20_138
*680 FILLER_20_141
*681 FILLER_20_153
*682 FILLER_20_16
*683 FILLER_20_165
*684 FILLER_20_177
*685 FILLER_20_189
*686 FILLER_20_195
*687 FILLER_20_197
*688 FILLER_20_209
*689 FILLER_20_22
*690 FILLER_20_221
*691 FILLER_20_233
*692 FILLER_20_245
*693 FILLER_20_251
*694 FILLER_20_253
*695 FILLER_20_26
*696 FILLER_20_265
*697 FILLER_20_277
*698 FILLER_20_289
*699 FILLER_20_29
*700 FILLER_20_297
*701 FILLER_20_3
*702 FILLER_20_41
*703 FILLER_20_47
*704 FILLER_20_57
*705 FILLER_20_67
*706 FILLER_20_82
*707 FILLER_20_85
*708 FILLER_20_9
*709 FILLER_20_94
*710 FILLER_21_107
*711 FILLER_21_111
*712 FILLER_21_113
*713 FILLER_21_118
*714 FILLER_21_129
*715 FILLER_21_141
*716 FILLER_21_153
*717 FILLER_21_165
*718 FILLER_21_169
*719 FILLER_21_181
*720 FILLER_21_193
*721 FILLER_21_20
*722 FILLER_21_205
*723 FILLER_21_217
*724 FILLER_21_223
*725 FILLER_21_225
*726 FILLER_21_237
*727 FILLER_21_249
*728 FILLER_21_261
*729 FILLER_21_273
*730 FILLER_21_279
*731 FILLER_21_28
*732 FILLER_21_281
*733 FILLER_21_293
*734 FILLER_21_3
*735 FILLER_21_35
*736 FILLER_21_43
*737 FILLER_21_47
*738 FILLER_21_54
*739 FILLER_21_57
*740 FILLER_21_64
*741 FILLER_21_77
*742 FILLER_21_83
*743 FILLER_21_87
*744 FILLER_21_99
*745 FILLER_22_107
*746 FILLER_22_118
*747 FILLER_22_13
*748 FILLER_22_130
*749 FILLER_22_138
*750 FILLER_22_141
*751 FILLER_22_153
*752 FILLER_22_165
*753 FILLER_22_177
*754 FILLER_22_189
*755 FILLER_22_195
*756 FILLER_22_197
*757 FILLER_22_209
*758 FILLER_22_221
*759 FILLER_22_233
*760 FILLER_22_245
*761 FILLER_22_251
*762 FILLER_22_253
*763 FILLER_22_26
*764 FILLER_22_265
*765 FILLER_22_277
*766 FILLER_22_289
*767 FILLER_22_29
*768 FILLER_22_297
*769 FILLER_22_3
*770 FILLER_22_40
*771 FILLER_22_57
*772 FILLER_22_70
*773 FILLER_22_82
*774 FILLER_22_85
*775 FILLER_22_9
*776 FILLER_22_94
*777 FILLER_23_104
*778 FILLER_23_113
*779 FILLER_23_125
*780 FILLER_23_137
*781 FILLER_23_14
*782 FILLER_23_149
*783 FILLER_23_161
*784 FILLER_23_167
*785 FILLER_23_169
*786 FILLER_23_177
*787 FILLER_23_185
*788 FILLER_23_197
*789 FILLER_23_209
*790 FILLER_23_221
*791 FILLER_23_225
*792 FILLER_23_237
*793 FILLER_23_249
*794 FILLER_23_261
*795 FILLER_23_27
*796 FILLER_23_273
*797 FILLER_23_279
*798 FILLER_23_281
*799 FILLER_23_293
*800 FILLER_23_3
*801 FILLER_23_33
*802 FILLER_23_43
*803 FILLER_23_54
*804 FILLER_23_57
*805 FILLER_23_62
*806 FILLER_23_70
*807 FILLER_23_82
*808 FILLER_23_95
*809 FILLER_24_106
*810 FILLER_24_118
*811 FILLER_24_130
*812 FILLER_24_138
*813 FILLER_24_14
*814 FILLER_24_141
*815 FILLER_24_153
*816 FILLER_24_165
*817 FILLER_24_177
*818 FILLER_24_189
*819 FILLER_24_195
*820 FILLER_24_197
*821 FILLER_24_209
*822 FILLER_24_22
*823 FILLER_24_221
*824 FILLER_24_233
*825 FILLER_24_245
*826 FILLER_24_251
*827 FILLER_24_253
*828 FILLER_24_26
*829 FILLER_24_265
*830 FILLER_24_277
*831 FILLER_24_289
*832 FILLER_24_29
*833 FILLER_24_297
*834 FILLER_24_3
*835 FILLER_24_33
*836 FILLER_24_43
*837 FILLER_24_50
*838 FILLER_24_56
*839 FILLER_24_65
*840 FILLER_24_79
*841 FILLER_24_83
*842 FILLER_24_85
*843 FILLER_24_96
*844 FILLER_25_110
*845 FILLER_25_113
*846 FILLER_25_12
*847 FILLER_25_125
*848 FILLER_25_137
*849 FILLER_25_149
*850 FILLER_25_161
*851 FILLER_25_167
*852 FILLER_25_169
*853 FILLER_25_181
*854 FILLER_25_193
*855 FILLER_25_205
*856 FILLER_25_217
*857 FILLER_25_223
*858 FILLER_25_225
*859 FILLER_25_237
*860 FILLER_25_249
*861 FILLER_25_25
*862 FILLER_25_261
*863 FILLER_25_273
*864 FILLER_25_279
*865 FILLER_25_281
*866 FILLER_25_293
*867 FILLER_25_3
*868 FILLER_25_32
*869 FILLER_25_41
*870 FILLER_25_48
*871 FILLER_25_57
*872 FILLER_25_66
*873 FILLER_25_73
*874 FILLER_25_79
*875 FILLER_25_91
*876 FILLER_25_98
*877 FILLER_26_100
*878 FILLER_26_112
*879 FILLER_26_124
*880 FILLER_26_136
*881 FILLER_26_141
*882 FILLER_26_153
*883 FILLER_26_165
*884 FILLER_26_177
*885 FILLER_26_189
*886 FILLER_26_195
*887 FILLER_26_197
*888 FILLER_26_209
*889 FILLER_26_22
*890 FILLER_26_221
*891 FILLER_26_233
*892 FILLER_26_245
*893 FILLER_26_251
*894 FILLER_26_253
*895 FILLER_26_265
*896 FILLER_26_277
*897 FILLER_26_289
*898 FILLER_26_29
*899 FILLER_26_297
*900 FILLER_26_3
*901 FILLER_26_41
*902 FILLER_26_47
*903 FILLER_26_57
*904 FILLER_26_67
*905 FILLER_26_8
*906 FILLER_26_82
*907 FILLER_26_85
*908 FILLER_27_105
*909 FILLER_27_111
*910 FILLER_27_113
*911 FILLER_27_125
*912 FILLER_27_137
*913 FILLER_27_14
*914 FILLER_27_149
*915 FILLER_27_161
*916 FILLER_27_167
*917 FILLER_27_169
*918 FILLER_27_181
*919 FILLER_27_193
*920 FILLER_27_205
*921 FILLER_27_217
*922 FILLER_27_22
*923 FILLER_27_223
*924 FILLER_27_225
*925 FILLER_27_237
*926 FILLER_27_249
*927 FILLER_27_26
*928 FILLER_27_261
*929 FILLER_27_273
*930 FILLER_27_279
*931 FILLER_27_281
*932 FILLER_27_293
*933 FILLER_27_3
*934 FILLER_27_33
*935 FILLER_27_46
*936 FILLER_27_50
*937 FILLER_27_54
*938 FILLER_27_57
*939 FILLER_27_68
*940 FILLER_27_79
*941 FILLER_27_86
*942 FILLER_27_93
*943 FILLER_28_105
*944 FILLER_28_118
*945 FILLER_28_12
*946 FILLER_28_127
*947 FILLER_28_139
*948 FILLER_28_141
*949 FILLER_28_153
*950 FILLER_28_165
*951 FILLER_28_177
*952 FILLER_28_18
*953 FILLER_28_189
*954 FILLER_28_195
*955 FILLER_28_197
*956 FILLER_28_209
*957 FILLER_28_221
*958 FILLER_28_233
*959 FILLER_28_245
*960 FILLER_28_251
*961 FILLER_28_253
*962 FILLER_28_26
*963 FILLER_28_265
*964 FILLER_28_277
*965 FILLER_28_289
*966 FILLER_28_29
*967 FILLER_28_297
*968 FILLER_28_3
*969 FILLER_28_39
*970 FILLER_28_43
*971 FILLER_28_47
*972 FILLER_28_55
*973 FILLER_28_59
*974 FILLER_28_69
*975 FILLER_28_80
*976 FILLER_28_85
*977 FILLER_28_91
*978 FILLER_28_97
*979 FILLER_29_102
*980 FILLER_29_110
*981 FILLER_29_113
*982 FILLER_29_119
*983 FILLER_29_131
*984 FILLER_29_143
*985 FILLER_29_155
*986 FILLER_29_167
*987 FILLER_29_169
*988 FILLER_29_181
*989 FILLER_29_185
*990 FILLER_29_193
*991 FILLER_29_205
*992 FILLER_29_217
*993 FILLER_29_223
*994 FILLER_29_225
*995 FILLER_29_237
*996 FILLER_29_249
*997 FILLER_29_261
*998 FILLER_29_273
*999 FILLER_29_279
*1000 FILLER_29_281
*1001 FILLER_29_293
*1002 FILLER_29_3
*1003 FILLER_29_32
*1004 FILLER_29_45
*1005 FILLER_29_52
*1006 FILLER_29_57
*1007 FILLER_29_62
*1008 FILLER_29_68
*1009 FILLER_29_72
*1010 FILLER_29_80
*1011 FILLER_29_88
*1012 FILLER_29_9
*1013 FILLER_2_103
*1014 FILLER_2_123
*1015 FILLER_2_136
*1016 FILLER_2_141
*1017 FILLER_2_146
*1018 FILLER_2_158
*1019 FILLER_2_170
*1020 FILLER_2_182
*1021 FILLER_2_194
*1022 FILLER_2_197
*1023 FILLER_2_209
*1024 FILLER_2_221
*1025 FILLER_2_233
*1026 FILLER_2_245
*1027 FILLER_2_251
*1028 FILLER_2_253
*1029 FILLER_2_26
*1030 FILLER_2_265
*1031 FILLER_2_277
*1032 FILLER_2_289
*1033 FILLER_2_29
*1034 FILLER_2_297
*1035 FILLER_2_3
*1036 FILLER_2_48
*1037 FILLER_2_56
*1038 FILLER_2_75
*1039 FILLER_2_83
*1040 FILLER_2_85
*1041 FILLER_2_9
*1042 FILLER_30_102
*1043 FILLER_30_114
*1044 FILLER_30_126
*1045 FILLER_30_138
*1046 FILLER_30_141
*1047 FILLER_30_148
*1048 FILLER_30_15
*1049 FILLER_30_160
*1050 FILLER_30_172
*1051 FILLER_30_184
*1052 FILLER_30_197
*1053 FILLER_30_209
*1054 FILLER_30_221
*1055 FILLER_30_233
*1056 FILLER_30_245
*1057 FILLER_30_251
*1058 FILLER_30_253
*1059 FILLER_30_265
*1060 FILLER_30_27
*1061 FILLER_30_277
*1062 FILLER_30_289
*1063 FILLER_30_29
*1064 FILLER_30_297
*1065 FILLER_30_3
*1066 FILLER_30_34
*1067 FILLER_30_41
*1068 FILLER_30_52
*1069 FILLER_30_65
*1070 FILLER_30_78
*1071 FILLER_30_85
*1072 FILLER_30_93
*1073 FILLER_31_109
*1074 FILLER_31_113
*1075 FILLER_31_126
*1076 FILLER_31_135
*1077 FILLER_31_147
*1078 FILLER_31_15
*1079 FILLER_31_159
*1080 FILLER_31_167
*1081 FILLER_31_169
*1082 FILLER_31_181
*1083 FILLER_31_193
*1084 FILLER_31_205
*1085 FILLER_31_217
*1086 FILLER_31_223
*1087 FILLER_31_225
*1088 FILLER_31_23
*1089 FILLER_31_237
*1090 FILLER_31_249
*1091 FILLER_31_261
*1092 FILLER_31_273
*1093 FILLER_31_279
*1094 FILLER_31_281
*1095 FILLER_31_293
*1096 FILLER_31_3
*1097 FILLER_31_33
*1098 FILLER_31_42
*1099 FILLER_31_54
*1100 FILLER_31_57
*1101 FILLER_31_65
*1102 FILLER_31_72
*1103 FILLER_31_87
*1104 FILLER_31_93
*1105 FILLER_31_97
*1106 FILLER_32_105
*1107 FILLER_32_13
*1108 FILLER_32_130
*1109 FILLER_32_138
*1110 FILLER_32_141
*1111 FILLER_32_153
*1112 FILLER_32_165
*1113 FILLER_32_177
*1114 FILLER_32_189
*1115 FILLER_32_195
*1116 FILLER_32_197
*1117 FILLER_32_209
*1118 FILLER_32_221
*1119 FILLER_32_233
*1120 FILLER_32_245
*1121 FILLER_32_251
*1122 FILLER_32_253
*1123 FILLER_32_26
*1124 FILLER_32_265
*1125 FILLER_32_277
*1126 FILLER_32_289
*1127 FILLER_32_29
*1128 FILLER_32_297
*1129 FILLER_32_3
*1130 FILLER_32_40
*1131 FILLER_32_48
*1132 FILLER_32_59
*1133 FILLER_32_66
*1134 FILLER_32_78
*1135 FILLER_32_85
*1136 FILLER_32_97
*1137 FILLER_33_110
*1138 FILLER_33_113
*1139 FILLER_33_125
*1140 FILLER_33_138
*1141 FILLER_33_150
*1142 FILLER_33_162
*1143 FILLER_33_169
*1144 FILLER_33_181
*1145 FILLER_33_193
*1146 FILLER_33_205
*1147 FILLER_33_217
*1148 FILLER_33_223
*1149 FILLER_33_225
*1150 FILLER_33_237
*1151 FILLER_33_249
*1152 FILLER_33_261
*1153 FILLER_33_27
*1154 FILLER_33_273
*1155 FILLER_33_279
*1156 FILLER_33_281
*1157 FILLER_33_293
*1158 FILLER_33_3
*1159 FILLER_33_44
*1160 FILLER_33_57
*1161 FILLER_33_69
*1162 FILLER_33_77
*1163 FILLER_33_86
*1164 FILLER_33_98
*1165 FILLER_34_107
*1166 FILLER_34_119
*1167 FILLER_34_131
*1168 FILLER_34_139
*1169 FILLER_34_141
*1170 FILLER_34_15
*1171 FILLER_34_153
*1172 FILLER_34_165
*1173 FILLER_34_177
*1174 FILLER_34_189
*1175 FILLER_34_195
*1176 FILLER_34_197
*1177 FILLER_34_20
*1178 FILLER_34_209
*1179 FILLER_34_221
*1180 FILLER_34_233
*1181 FILLER_34_245
*1182 FILLER_34_251
*1183 FILLER_34_253
*1184 FILLER_34_265
*1185 FILLER_34_277
*1186 FILLER_34_289
*1187 FILLER_34_29
*1188 FILLER_34_297
*1189 FILLER_34_3
*1190 FILLER_34_41
*1191 FILLER_34_49
*1192 FILLER_34_60
*1193 FILLER_34_68
*1194 FILLER_34_79
*1195 FILLER_34_83
*1196 FILLER_34_85
*1197 FILLER_34_96
*1198 FILLER_35_102
*1199 FILLER_35_110
*1200 FILLER_35_113
*1201 FILLER_35_125
*1202 FILLER_35_137
*1203 FILLER_35_149
*1204 FILLER_35_15
*1205 FILLER_35_161
*1206 FILLER_35_167
*1207 FILLER_35_169
*1208 FILLER_35_181
*1209 FILLER_35_193
*1210 FILLER_35_205
*1211 FILLER_35_21
*1212 FILLER_35_217
*1213 FILLER_35_223
*1214 FILLER_35_225
*1215 FILLER_35_237
*1216 FILLER_35_249
*1217 FILLER_35_261
*1218 FILLER_35_27
*1219 FILLER_35_273
*1220 FILLER_35_279
*1221 FILLER_35_281
*1222 FILLER_35_293
*1223 FILLER_35_3
*1224 FILLER_35_39
*1225 FILLER_35_51
*1226 FILLER_35_55
*1227 FILLER_35_57
*1228 FILLER_35_65
*1229 FILLER_35_75
*1230 FILLER_35_90
*1231 FILLER_36_108
*1232 FILLER_36_118
*1233 FILLER_36_130
*1234 FILLER_36_138
*1235 FILLER_36_141
*1236 FILLER_36_15
*1237 FILLER_36_153
*1238 FILLER_36_165
*1239 FILLER_36_177
*1240 FILLER_36_189
*1241 FILLER_36_195
*1242 FILLER_36_197
*1243 FILLER_36_209
*1244 FILLER_36_221
*1245 FILLER_36_233
*1246 FILLER_36_245
*1247 FILLER_36_251
*1248 FILLER_36_253
*1249 FILLER_36_265
*1250 FILLER_36_27
*1251 FILLER_36_277
*1252 FILLER_36_289
*1253 FILLER_36_29
*1254 FILLER_36_297
*1255 FILLER_36_3
*1256 FILLER_36_41
*1257 FILLER_36_53
*1258 FILLER_36_65
*1259 FILLER_36_77
*1260 FILLER_36_83
*1261 FILLER_36_85
*1262 FILLER_36_97
*1263 FILLER_37_108
*1264 FILLER_37_11
*1265 FILLER_37_113
*1266 FILLER_37_126
*1267 FILLER_37_134
*1268 FILLER_37_139
*1269 FILLER_37_151
*1270 FILLER_37_163
*1271 FILLER_37_167
*1272 FILLER_37_169
*1273 FILLER_37_181
*1274 FILLER_37_193
*1275 FILLER_37_205
*1276 FILLER_37_21
*1277 FILLER_37_217
*1278 FILLER_37_223
*1279 FILLER_37_225
*1280 FILLER_37_237
*1281 FILLER_37_249
*1282 FILLER_37_261
*1283 FILLER_37_273
*1284 FILLER_37_279
*1285 FILLER_37_281
*1286 FILLER_37_293
*1287 FILLER_37_3
*1288 FILLER_37_33
*1289 FILLER_37_45
*1290 FILLER_37_53
*1291 FILLER_37_57
*1292 FILLER_37_65
*1293 FILLER_37_77
*1294 FILLER_37_84
*1295 FILLER_37_96
*1296 FILLER_38_109
*1297 FILLER_38_113
*1298 FILLER_38_121
*1299 FILLER_38_133
*1300 FILLER_38_139
*1301 FILLER_38_141
*1302 FILLER_38_15
*1303 FILLER_38_153
*1304 FILLER_38_165
*1305 FILLER_38_177
*1306 FILLER_38_189
*1307 FILLER_38_195
*1308 FILLER_38_197
*1309 FILLER_38_209
*1310 FILLER_38_221
*1311 FILLER_38_233
*1312 FILLER_38_245
*1313 FILLER_38_251
*1314 FILLER_38_253
*1315 FILLER_38_265
*1316 FILLER_38_27
*1317 FILLER_38_277
*1318 FILLER_38_289
*1319 FILLER_38_29
*1320 FILLER_38_297
*1321 FILLER_38_3
*1322 FILLER_38_41
*1323 FILLER_38_53
*1324 FILLER_38_65
*1325 FILLER_38_77
*1326 FILLER_38_83
*1327 FILLER_38_85
*1328 FILLER_38_97
*1329 FILLER_39_104
*1330 FILLER_39_113
*1331 FILLER_39_125
*1332 FILLER_39_137
*1333 FILLER_39_149
*1334 FILLER_39_15
*1335 FILLER_39_161
*1336 FILLER_39_167
*1337 FILLER_39_169
*1338 FILLER_39_181
*1339 FILLER_39_193
*1340 FILLER_39_205
*1341 FILLER_39_217
*1342 FILLER_39_223
*1343 FILLER_39_225
*1344 FILLER_39_237
*1345 FILLER_39_249
*1346 FILLER_39_261
*1347 FILLER_39_27
*1348 FILLER_39_273
*1349 FILLER_39_279
*1350 FILLER_39_281
*1351 FILLER_39_293
*1352 FILLER_39_3
*1353 FILLER_39_39
*1354 FILLER_39_45
*1355 FILLER_39_53
*1356 FILLER_39_57
*1357 FILLER_39_68
*1358 FILLER_39_80
*1359 FILLER_39_92
*1360 FILLER_3_101
*1361 FILLER_3_11
*1362 FILLER_3_110
*1363 FILLER_3_113
*1364 FILLER_3_131
*1365 FILLER_3_140
*1366 FILLER_3_157
*1367 FILLER_3_165
*1368 FILLER_3_169
*1369 FILLER_3_181
*1370 FILLER_3_193
*1371 FILLER_3_205
*1372 FILLER_3_217
*1373 FILLER_3_223
*1374 FILLER_3_225
*1375 FILLER_3_237
*1376 FILLER_3_249
*1377 FILLER_3_261
*1378 FILLER_3_273
*1379 FILLER_3_279
*1380 FILLER_3_281
*1381 FILLER_3_29
*1382 FILLER_3_293
*1383 FILLER_3_3
*1384 FILLER_3_49
*1385 FILLER_3_55
*1386 FILLER_3_57
*1387 FILLER_3_79
*1388 FILLER_40_109
*1389 FILLER_40_121
*1390 FILLER_40_133
*1391 FILLER_40_139
*1392 FILLER_40_141
*1393 FILLER_40_15
*1394 FILLER_40_153
*1395 FILLER_40_165
*1396 FILLER_40_177
*1397 FILLER_40_189
*1398 FILLER_40_195
*1399 FILLER_40_197
*1400 FILLER_40_209
*1401 FILLER_40_221
*1402 FILLER_40_233
*1403 FILLER_40_245
*1404 FILLER_40_251
*1405 FILLER_40_253
*1406 FILLER_40_265
*1407 FILLER_40_27
*1408 FILLER_40_277
*1409 FILLER_40_289
*1410 FILLER_40_29
*1411 FILLER_40_297
*1412 FILLER_40_3
*1413 FILLER_40_36
*1414 FILLER_40_48
*1415 FILLER_40_56
*1416 FILLER_40_66
*1417 FILLER_40_78
*1418 FILLER_40_85
*1419 FILLER_40_97
*1420 FILLER_41_105
*1421 FILLER_41_111
*1422 FILLER_41_113
*1423 FILLER_41_125
*1424 FILLER_41_137
*1425 FILLER_41_149
*1426 FILLER_41_15
*1427 FILLER_41_161
*1428 FILLER_41_167
*1429 FILLER_41_169
*1430 FILLER_41_181
*1431 FILLER_41_193
*1432 FILLER_41_205
*1433 FILLER_41_217
*1434 FILLER_41_223
*1435 FILLER_41_225
*1436 FILLER_41_237
*1437 FILLER_41_249
*1438 FILLER_41_261
*1439 FILLER_41_27
*1440 FILLER_41_273
*1441 FILLER_41_279
*1442 FILLER_41_281
*1443 FILLER_41_293
*1444 FILLER_41_3
*1445 FILLER_41_39
*1446 FILLER_41_51
*1447 FILLER_41_55
*1448 FILLER_41_57
*1449 FILLER_41_69
*1450 FILLER_41_81
*1451 FILLER_41_93
*1452 FILLER_42_109
*1453 FILLER_42_121
*1454 FILLER_42_133
*1455 FILLER_42_139
*1456 FILLER_42_141
*1457 FILLER_42_15
*1458 FILLER_42_153
*1459 FILLER_42_165
*1460 FILLER_42_177
*1461 FILLER_42_189
*1462 FILLER_42_195
*1463 FILLER_42_197
*1464 FILLER_42_209
*1465 FILLER_42_221
*1466 FILLER_42_233
*1467 FILLER_42_245
*1468 FILLER_42_251
*1469 FILLER_42_253
*1470 FILLER_42_265
*1471 FILLER_42_27
*1472 FILLER_42_277
*1473 FILLER_42_289
*1474 FILLER_42_29
*1475 FILLER_42_297
*1476 FILLER_42_3
*1477 FILLER_42_41
*1478 FILLER_42_53
*1479 FILLER_42_65
*1480 FILLER_42_77
*1481 FILLER_42_83
*1482 FILLER_42_85
*1483 FILLER_42_97
*1484 FILLER_43_105
*1485 FILLER_43_111
*1486 FILLER_43_113
*1487 FILLER_43_125
*1488 FILLER_43_137
*1489 FILLER_43_149
*1490 FILLER_43_15
*1491 FILLER_43_161
*1492 FILLER_43_167
*1493 FILLER_43_169
*1494 FILLER_43_181
*1495 FILLER_43_193
*1496 FILLER_43_205
*1497 FILLER_43_217
*1498 FILLER_43_223
*1499 FILLER_43_225
*1500 FILLER_43_237
*1501 FILLER_43_249
*1502 FILLER_43_261
*1503 FILLER_43_27
*1504 FILLER_43_273
*1505 FILLER_43_279
*1506 FILLER_43_281
*1507 FILLER_43_293
*1508 FILLER_43_3
*1509 FILLER_43_39
*1510 FILLER_43_51
*1511 FILLER_43_55
*1512 FILLER_43_57
*1513 FILLER_43_69
*1514 FILLER_43_81
*1515 FILLER_43_93
*1516 FILLER_44_109
*1517 FILLER_44_121
*1518 FILLER_44_133
*1519 FILLER_44_139
*1520 FILLER_44_141
*1521 FILLER_44_15
*1522 FILLER_44_153
*1523 FILLER_44_165
*1524 FILLER_44_177
*1525 FILLER_44_189
*1526 FILLER_44_195
*1527 FILLER_44_197
*1528 FILLER_44_209
*1529 FILLER_44_221
*1530 FILLER_44_233
*1531 FILLER_44_245
*1532 FILLER_44_251
*1533 FILLER_44_253
*1534 FILLER_44_265
*1535 FILLER_44_27
*1536 FILLER_44_277
*1537 FILLER_44_289
*1538 FILLER_44_29
*1539 FILLER_44_297
*1540 FILLER_44_3
*1541 FILLER_44_41
*1542 FILLER_44_53
*1543 FILLER_44_65
*1544 FILLER_44_77
*1545 FILLER_44_83
*1546 FILLER_44_85
*1547 FILLER_44_97
*1548 FILLER_45_105
*1549 FILLER_45_111
*1550 FILLER_45_113
*1551 FILLER_45_125
*1552 FILLER_45_137
*1553 FILLER_45_149
*1554 FILLER_45_15
*1555 FILLER_45_161
*1556 FILLER_45_167
*1557 FILLER_45_169
*1558 FILLER_45_181
*1559 FILLER_45_193
*1560 FILLER_45_205
*1561 FILLER_45_217
*1562 FILLER_45_223
*1563 FILLER_45_225
*1564 FILLER_45_237
*1565 FILLER_45_249
*1566 FILLER_45_261
*1567 FILLER_45_27
*1568 FILLER_45_273
*1569 FILLER_45_279
*1570 FILLER_45_281
*1571 FILLER_45_293
*1572 FILLER_45_3
*1573 FILLER_45_39
*1574 FILLER_45_51
*1575 FILLER_45_55
*1576 FILLER_45_57
*1577 FILLER_45_69
*1578 FILLER_45_81
*1579 FILLER_45_93
*1580 FILLER_46_109
*1581 FILLER_46_121
*1582 FILLER_46_133
*1583 FILLER_46_139
*1584 FILLER_46_141
*1585 FILLER_46_153
*1586 FILLER_46_165
*1587 FILLER_46_177
*1588 FILLER_46_189
*1589 FILLER_46_195
*1590 FILLER_46_197
*1591 FILLER_46_20
*1592 FILLER_46_209
*1593 FILLER_46_221
*1594 FILLER_46_233
*1595 FILLER_46_245
*1596 FILLER_46_251
*1597 FILLER_46_253
*1598 FILLER_46_265
*1599 FILLER_46_277
*1600 FILLER_46_289
*1601 FILLER_46_29
*1602 FILLER_46_297
*1603 FILLER_46_3
*1604 FILLER_46_41
*1605 FILLER_46_53
*1606 FILLER_46_65
*1607 FILLER_46_77
*1608 FILLER_46_8
*1609 FILLER_46_83
*1610 FILLER_46_85
*1611 FILLER_46_97
*1612 FILLER_47_105
*1613 FILLER_47_11
*1614 FILLER_47_111
*1615 FILLER_47_113
*1616 FILLER_47_125
*1617 FILLER_47_137
*1618 FILLER_47_149
*1619 FILLER_47_15
*1620 FILLER_47_161
*1621 FILLER_47_167
*1622 FILLER_47_169
*1623 FILLER_47_181