*SPEF "ieee 1481-1999"
*DESIGN "zl_uart"
*DATE "11:11:11 Fri 11 11, 1111"
*VENDOR "OpenRCX"
*PROGRAM "Parallel Extraction"
*VERSION "1.0"
*DESIGN_FLOW "NAME_SCOPE LOCAL" "PIN_CAP NONE"
*DIVIDER /
*DELIMITER :
*BUS_DELIMITER []
*T_UNIT 1 NS
*C_UNIT 1 PF
*R_UNIT 1 OHM
*L_UNIT 1 HENRY

*NAME_MAP
*1 io_in[0]
*2 io_in[1]
*3 io_in[2]
*4 io_in[3]
*5 io_in[4]
*6 io_in[5]
*7 io_in[6]
*8 io_in[7]
*9 io_out[0]
*10 io_out[1]
*11 io_out[2]
*12 io_out[3]
*13 io_out[4]
*14 io_out[5]
*15 io_out[6]
*16 io_out[7]
*19 _000_
*20 _001_
*21 _002_
*22 _003_
*23 _004_
*24 _005_
*25 _006_
*26 _007_
*27 _008_
*28 _009_
*29 _010_
*30 _011_
*31 _012_
*32 _013_
*33 _014_
*34 _015_
*35 _016_
*36 _017_
*37 _018_
*38 _019_
*39 _020_
*40 _021_
*41 _022_
*42 _023_
*43 _024_
*44 _025_
*45 _026_
*46 _027_
*47 _028_
*48 _029_
*49 _030_
*50 _031_
*51 _032_
*52 _033_
*53 _034_
*54 _035_
*55 _036_
*56 _037_
*57 _038_
*58 _039_
*59 _040_
*60 _041_
*61 _042_
*62 _043_
*63 _044_
*64 _045_
*65 _046_
*66 _047_
*67 _048_
*68 _049_
*69 _050_
*70 _051_
*71 _052_
*72 _053_
*73 _054_
*74 _055_
*75 _056_
*76 _057_
*77 _058_
*78 _059_
*79 _060_
*80 _061_
*81 _062_
*82 _063_
*83 _064_
*84 _065_
*85 _066_
*86 _067_
*87 _068_
*88 _069_
*89 _070_
*90 _071_
*91 _072_
*92 _073_
*93 _074_
*94 _075_
*95 _076_
*96 _077_
*97 _078_
*98 _079_
*99 _080_
*100 _081_
*101 _082_
*102 _083_
*103 _084_
*104 _085_
*105 _086_
*106 _087_
*107 _088_
*108 _089_
*109 _090_
*110 _091_
*111 _092_
*112 _093_
*113 _094_
*114 _095_
*115 _096_
*116 _097_
*117 _098_
*118 _099_
*119 _100_
*120 _101_
*121 _102_
*122 _103_
*123 _104_
*124 _105_
*125 _106_
*126 _107_
*127 _108_
*128 _109_
*129 _110_
*130 _111_
*131 _112_
*132 _113_
*133 _114_
*134 _115_
*135 _116_
*136 _117_
*137 _118_
*138 _119_
*139 _120_
*140 _121_
*141 _122_
*142 _123_
*143 _124_
*144 _125_
*145 _126_
*146 _127_
*147 _128_
*148 _129_
*149 _130_
*150 _131_
*151 _132_
*152 _133_
*153 _134_
*154 _135_
*155 _136_
*156 _137_
*157 _138_
*158 _139_
*159 _140_
*160 _141_
*161 _142_
*162 _143_
*163 _144_
*164 _145_
*165 _146_
*166 _147_
*167 _148_
*168 _149_
*169 _150_
*170 _151_
*171 _152_
*172 _153_
*173 _154_
*174 _155_
*175 _156_
*176 _157_
*177 _158_
*178 _159_
*179 _160_
*180 _161_
*181 _162_
*182 _163_
*183 _164_
*184 _165_
*185 _166_
*186 _167_
*187 _168_
*188 _169_
*189 _170_
*190 _171_
*191 _172_
*192 _173_
*193 _174_
*194 _175_
*195 _176_
*196 _177_
*197 _178_
*198 _179_
*199 _180_
*200 _181_
*201 _182_
*202 _183_
*203 _184_
*204 _185_
*205 _186_
*206 _187_
*207 _188_
*208 _189_
*209 _190_
*210 _191_
*211 _192_
*212 _193_
*213 _194_
*214 _195_
*215 _196_
*216 _197_
*217 _198_
*218 _199_
*219 _200_
*220 _201_
*221 _202_
*222 _203_
*223 _204_
*224 _205_
*225 _206_
*226 _207_
*227 addr\[0\]
*228 addr\[1\]
*229 addr\[2\]
*230 addr\[3\]
*231 addr\[4\]
*232 addr\[5\]
*233 addr\[6\]
*234 addr\[7\]
*235 clknet_0_io_in[0]
*236 clknet_2_0__leaf_io_in[0]
*237 clknet_2_1__leaf_io_in[0]
*238 clknet_2_2__leaf_io_in[0]
*239 clknet_2_3__leaf_io_in[0]
*240 cnt\[0\]
*241 cnt\[1\]
*242 cnt\[2\]
*243 cnt\[3\]
*244 net1
*245 net2
*246 net3
*247 net4
*248 net5
*249 net6
*250 net7
*251 obuffer\[0\]
*252 obuffer\[1\]
*253 obuffer\[2\]
*254 obuffer\[3\]
*255 obuffer\[4\]
*256 obuffer\[5\]
*257 obuffer\[6\]
*258 obuffer\[7\]
*259 reg1\[0\]
*260 reg1\[1\]
*261 reg1\[2\]
*262 reg1\[3\]
*263 reg1\[4\]
*264 reg1\[5\]
*265 reg1\[6\]
*266 reg1\[7\]
*267 state\[0\]
*268 state\[1\]
*269 state\[2\]
*270 state\[3\]
*271 tx
*272 uart_d\[0\]
*273 uart_d\[1\]
*274 ANTENNA_1
*275 ANTENNA_2
*276 ANTENNA_3
*277 ANTENNA_4
*278 FILLER_0_103
*279 FILLER_0_111
*280 FILLER_0_113
*281 FILLER_0_131
*282 FILLER_0_135
*283 FILLER_0_139
*284 FILLER_0_141
*285 FILLER_0_153
*286 FILLER_0_165
*287 FILLER_0_169
*288 FILLER_0_181
*289 FILLER_0_193
*290 FILLER_0_197
*291 FILLER_0_209
*292 FILLER_0_221
*293 FILLER_0_225
*294 FILLER_0_237
*295 FILLER_0_249
*296 FILLER_0_253
*297 FILLER_0_26
*298 FILLER_0_265
*299 FILLER_0_277
*300 FILLER_0_281
*301 FILLER_0_29
*302 FILLER_0_293
*303 FILLER_0_3
*304 FILLER_0_54
*305 FILLER_0_57
*306 FILLER_0_79
*307 FILLER_0_83
*308 FILLER_0_85
*309 FILLER_0_9
*310 FILLER_10_112
*311 FILLER_10_120
*312 FILLER_10_132
*313 FILLER_10_141
*314 FILLER_10_150
*315 FILLER_10_162
*316 FILLER_10_174
*317 FILLER_10_186
*318 FILLER_10_194
*319 FILLER_10_197
*320 FILLER_10_209
*321 FILLER_10_22
*322 FILLER_10_221
*323 FILLER_10_233
*324 FILLER_10_245
*325 FILLER_10_251
*326 FILLER_10_253
*327 FILLER_10_265
*328 FILLER_10_277
*329 FILLER_10_289
*330 FILLER_10_29
*331 FILLER_10_297
*332 FILLER_10_3
*333 FILLER_10_47
*334 FILLER_10_55
*335 FILLER_10_73
*336 FILLER_10_81
*337 FILLER_10_85
*338 FILLER_10_95
*339 FILLER_11_103
*340 FILLER_11_110
*341 FILLER_11_113
*342 FILLER_11_122
*343 FILLER_11_131
*344 FILLER_11_143
*345 FILLER_11_155
*346 FILLER_11_16
*347 FILLER_11_167
*348 FILLER_11_169
*349 FILLER_11_181
*350 FILLER_11_193
*351 FILLER_11_205
*352 FILLER_11_217
*353 FILLER_11_223
*354 FILLER_11_225
*355 FILLER_11_237
*356 FILLER_11_249
*357 FILLER_11_261
*358 FILLER_11_273
*359 FILLER_11_279
*360 FILLER_11_281
*361 FILLER_11_293
*362 FILLER_11_3
*363 FILLER_11_33
*364 FILLER_11_54
*365 FILLER_11_57
*366 FILLER_11_69
*367 FILLER_11_8
*368 FILLER_11_81
*369 FILLER_11_95
*370 FILLER_12_118
*371 FILLER_12_128
*372 FILLER_12_132
*373 FILLER_12_138
*374 FILLER_12_141
*375 FILLER_12_147
*376 FILLER_12_159
*377 FILLER_12_171
*378 FILLER_12_183
*379 FILLER_12_195
*380 FILLER_12_197
*381 FILLER_12_209
*382 FILLER_12_221
*383 FILLER_12_233
*384 FILLER_12_245
*385 FILLER_12_251
*386 FILLER_12_253
*387 FILLER_12_26
*388 FILLER_12_265
*389 FILLER_12_277
*390 FILLER_12_289
*391 FILLER_12_29
*392 FILLER_12_297
*393 FILLER_12_3
*394 FILLER_12_48
*395 FILLER_12_68
*396 FILLER_12_82
*397 FILLER_12_85
*398 FILLER_12_92
*399 FILLER_12_96
*400 FILLER_13_103
*401 FILLER_13_111
*402 FILLER_13_113
*403 FILLER_13_140
*404 FILLER_13_152
*405 FILLER_13_164
*406 FILLER_13_169
*407 FILLER_13_181
*408 FILLER_13_193
*409 FILLER_13_205
*410 FILLER_13_217
*411 FILLER_13_22
*412 FILLER_13_223
*413 FILLER_13_225
*414 FILLER_13_237
*415 FILLER_13_249
*416 FILLER_13_261
*417 FILLER_13_273
*418 FILLER_13_279
*419 FILLER_13_281
*420 FILLER_13_293
*421 FILLER_13_3
*422 FILLER_13_30
*423 FILLER_13_48
*424 FILLER_13_57
*425 FILLER_13_75
*426 FILLER_13_87
*427 FILLER_13_94
*428 FILLER_14_109
*429 FILLER_14_121
*430 FILLER_14_129
*431 FILLER_14_137
*432 FILLER_14_141
*433 FILLER_14_145
*434 FILLER_14_151
*435 FILLER_14_163
*436 FILLER_14_175
*437 FILLER_14_187
*438 FILLER_14_195
*439 FILLER_14_197
*440 FILLER_14_209
*441 FILLER_14_21
*442 FILLER_14_221
*443 FILLER_14_233
*444 FILLER_14_245
*445 FILLER_14_251
*446 FILLER_14_253
*447 FILLER_14_265
*448 FILLER_14_27
*449 FILLER_14_277
*450 FILLER_14_289
*451 FILLER_14_29
*452 FILLER_14_297
*453 FILLER_14_3
*454 FILLER_14_41
*455 FILLER_14_49
*456 FILLER_14_68
*457 FILLER_14_77
*458 FILLER_14_83
*459 FILLER_14_85
*460 FILLER_14_97
*461 FILLER_15_109
*462 FILLER_15_113
*463 FILLER_15_118
*464 FILLER_15_126
*465 FILLER_15_132
*466 FILLER_15_144
*467 FILLER_15_156
*468 FILLER_15_169
*469 FILLER_15_181
*470 FILLER_15_193
*471 FILLER_15_20
*472 FILLER_15_205
*473 FILLER_15_217
*474 FILLER_15_223
*475 FILLER_15_225
*476 FILLER_15_237
*477 FILLER_15_249
*478 FILLER_15_261
*479 FILLER_15_273
*480 FILLER_15_279
*481 FILLER_15_281
*482 FILLER_15_293
*483 FILLER_15_3
*484 FILLER_15_32
*485 FILLER_15_44
*486 FILLER_15_48
*487 FILLER_15_54
*488 FILLER_15_57
*489 FILLER_15_63
*490 FILLER_15_72
*491 FILLER_15_79
*492 FILLER_15_8
*493 FILLER_15_83
*494 FILLER_15_90
*495 FILLER_15_97
*496 FILLER_16_110
*497 FILLER_16_12
*498 FILLER_16_124
*499 FILLER_16_138
*500 FILLER_16_141
*501 FILLER_16_153
*502 FILLER_16_165
*503 FILLER_16_177
*504 FILLER_16_189
*505 FILLER_16_195
*506 FILLER_16_197
*507 FILLER_16_209
*508 FILLER_16_221
*509 FILLER_16_233
*510 FILLER_16_24
*511 FILLER_16_245
*512 FILLER_16_251
*513 FILLER_16_253
*514 FILLER_16_265
*515 FILLER_16_277
*516 FILLER_16_289
*517 FILLER_16_29
*518 FILLER_16_297
*519 FILLER_16_3
*520 FILLER_16_37
*521 FILLER_16_45
*522 FILLER_16_65
*523 FILLER_16_69
*524 FILLER_16_78
*525 FILLER_16_85
*526 FILLER_16_98
*527 FILLER_17_101
*528 FILLER_17_107
*529 FILLER_17_111
*530 FILLER_17_113
*531 FILLER_17_12
*532 FILLER_17_123
*533 FILLER_17_127
*534 FILLER_17_132
*535 FILLER_17_140
*536 FILLER_17_152
*537 FILLER_17_159
*538 FILLER_17_16
*539 FILLER_17_167
*540 FILLER_17_169
*541 FILLER_17_181
*542 FILLER_17_193
*543 FILLER_17_205
*544 FILLER_17_217
*545 FILLER_17_223
*546 FILLER_17_225
*547 FILLER_17_23
*548 FILLER_17_237
*549 FILLER_17_249
*550 FILLER_17_261
*551 FILLER_17_273
*552 FILLER_17_279
*553 FILLER_17_281
*554 FILLER_17_293
*555 FILLER_17_3
*556 FILLER_17_32
*557 FILLER_17_38
*558 FILLER_17_44
*559 FILLER_17_53
*560 FILLER_17_57
*561 FILLER_17_68
*562 FILLER_17_76
*563 FILLER_17_8
*564 FILLER_17_84
*565 FILLER_17_93
*566 FILLER_18_102
*567 FILLER_18_109
*568 FILLER_18_11
*569 FILLER_18_121
*570 FILLER_18_132
*571 FILLER_18_141
*572 FILLER_18_153
*573 FILLER_18_165
*574 FILLER_18_177
*575 FILLER_18_189
*576 FILLER_18_195
*577 FILLER_18_197
*578 FILLER_18_209
*579 FILLER_18_221
*580 FILLER_18_233
*581 FILLER_18_245
*582 FILLER_18_251
*583 FILLER_18_253
*584 FILLER_18_26
*585 FILLER_18_265
*586 FILLER_18_277
*587 FILLER_18_289
*588 FILLER_18_29
*589 FILLER_18_297
*590 FILLER_18_3
*591 FILLER_18_36
*592 FILLER_18_44
*593 FILLER_18_48
*594 FILLER_18_58
*595 FILLER_18_69
*596 FILLER_18_82
*597 FILLER_18_85
*598 FILLER_18_89
*599 FILLER_18_94
*600 FILLER_19_10
*601 FILLER_19_108
*602 FILLER_19_113
*603 FILLER_19_125
*604 FILLER_19_129
*605 FILLER_19_133
*606 FILLER_19_145
*607 FILLER_19_157
*608 FILLER_19_165
*609 FILLER_19_169
*610 FILLER_19_18
*611 FILLER_19_181
*612 FILLER_19_193
*613 FILLER_19_205
*614 FILLER_19_217
*615 FILLER_19_22
*616 FILLER_19_223
*617 FILLER_19_225
*618 FILLER_19_237
*619 FILLER_19_249
*620 FILLER_19_261
*621 FILLER_19_273
*622 FILLER_19_279
*623 FILLER_19_281
*624 FILLER_19_29
*625 FILLER_19_293
*626 FILLER_19_3
*627 FILLER_19_38
*628 FILLER_19_42
*629 FILLER_19_46
*630 FILLER_19_53
*631 FILLER_19_57
*632 FILLER_19_64
*633 FILLER_19_75
*634 FILLER_19_82
*635 FILLER_19_94
*636 FILLER_19_98
*637 FILLER_1_110
*638 FILLER_1_113
*639 FILLER_1_125
*640 FILLER_1_133
*641 FILLER_1_145
*642 FILLER_1_149
*643 FILLER_1_161
*644 FILLER_1_167
*645 FILLER_1_169
*646 FILLER_1_181
*647 FILLER_1_193
*648 FILLER_1_205
*649 FILLER_1_217
*650 FILLER_1_223
*651 FILLER_1_225
*652 FILLER_1_237
*653 FILLER_1_249
*654 FILLER_1_25
*655 FILLER_1_261
*656 FILLER_1_273
*657 FILLER_1_279
*658 FILLER_1_281
*659 FILLER_1_293
*660 FILLER_1_3
*661 FILLER_1_54
*662 FILLER_1_57
*663 FILLER_1_75
*664 FILLER_1_89
*665 FILLER_20_104
*666 FILLER_20_112
*667 FILLER_20_125
*668 FILLER_20_132
*669 FILLER_20_141
*670 FILLER_20_153
*671 FILLER_20_165
*672 FILLER_20_177
*673 FILLER_20_189
*674 FILLER_20_19
*675 FILLER_20_195
*676 FILLER_20_197
*677 FILLER_20_209
*678 FILLER_20_221
*679 FILLER_20_233
*680 FILLER_20_245
*681 FILLER_20_251
*682 FILLER_20_253
*683 FILLER_20_26
*684 FILLER_20_265
*685 FILLER_20_277
*686 FILLER_20_289
*687 FILLER_20_29
*688 FILLER_20_297
*689 FILLER_20_3
*690 FILLER_20_41
*691 FILLER_20_51
*692 FILLER_20_67
*693 FILLER_20_75
*694 FILLER_20_8
*695 FILLER_20_81
*696 FILLER_20_85
*697 FILLER_20_95
*698 FILLER_21_100
*699 FILLER_21_113
*700 FILLER_21_118
*701 FILLER_21_126
*702 FILLER_21_133
*703 FILLER_21_145
*704 FILLER_21_157
*705 FILLER_21_16
*706 FILLER_21_165
*707 FILLER_21_169
*708 FILLER_21_181
*709 FILLER_21_193
*710 FILLER_21_205
*711 FILLER_21_217
*712 FILLER_21_223
*713 FILLER_21_225
*714 FILLER_21_237
*715 FILLER_21_249
*716 FILLER_21_261
*717 FILLER_21_27
*718 FILLER_21_273
*719 FILLER_21_279
*720 FILLER_21_281
*721 FILLER_21_293
*722 FILLER_21_3
*723 FILLER_21_40
*724 FILLER_21_46
*725 FILLER_21_53
*726 FILLER_21_57
*727 FILLER_21_69
*728 FILLER_21_75
*729 FILLER_21_8
*730 FILLER_21_81
*731 FILLER_21_88
*732 FILLER_22_109
*733 FILLER_22_119
*734 FILLER_22_129
*735 FILLER_22_137
*736 FILLER_22_141
*737 FILLER_22_148
*738 FILLER_22_16
*739 FILLER_22_160
*740 FILLER_22_172
*741 FILLER_22_184
*742 FILLER_22_197
*743 FILLER_22_209
*744 FILLER_22_22
*745 FILLER_22_221
*746 FILLER_22_233
*747 FILLER_22_245
*748 FILLER_22_251
*749 FILLER_22_253
*750 FILLER_22_265
*751 FILLER_22_277
*752 FILLER_22_289
*753 FILLER_22_29
*754 FILLER_22_297
*755 FILLER_22_3
*756 FILLER_22_50
*757 FILLER_22_54
*758 FILLER_22_60
*759 FILLER_22_68
*760 FILLER_22_76
*761 FILLER_22_8
*762 FILLER_22_85
*763 FILLER_22_91
*764 FILLER_22_99
*765 FILLER_23_108
*766 FILLER_23_113
*767 FILLER_23_122
*768 FILLER_23_134
*769 FILLER_23_146
*770 FILLER_23_15
*771 FILLER_23_158
*772 FILLER_23_166
*773 FILLER_23_169
*774 FILLER_23_181
*775 FILLER_23_193
*776 FILLER_23_205
*777 FILLER_23_217
*778 FILLER_23_22
*779 FILLER_23_223
*780 FILLER_23_225
*781 FILLER_23_237
*782 FILLER_23_249
*783 FILLER_23_261
*784 FILLER_23_273
*785 FILLER_23_279
*786 FILLER_23_281
*787 FILLER_23_293
*788 FILLER_23_3
*789 FILLER_23_30
*790 FILLER_23_38
*791 FILLER_23_53
*792 FILLER_23_57
*793 FILLER_23_69
*794 FILLER_23_81
*795 FILLER_23_89
*796 FILLER_23_98
*797 FILLER_24_106
*798 FILLER_24_117
*799 FILLER_24_132
*800 FILLER_24_141
*801 FILLER_24_153
*802 FILLER_24_160
*803 FILLER_24_172
*804 FILLER_24_184
*805 FILLER_24_197
*806 FILLER_24_20
*807 FILLER_24_209
*808 FILLER_24_221
*809 FILLER_24_233
*810 FILLER_24_245
*811 FILLER_24_251
*812 FILLER_24_253
*813 FILLER_24_265
*814 FILLER_24_277
*815 FILLER_24_289
*816 FILLER_24_29
*817 FILLER_24_297
*818 FILLER_24_3
*819 FILLER_24_36
*820 FILLER_24_40
*821 FILLER_24_43
*822 FILLER_24_54
*823 FILLER_24_71
*824 FILLER_24_78
*825 FILLER_24_8
*826 FILLER_24_85
*827 FILLER_24_96
*828 FILLER_25_104
*829 FILLER_25_108
*830 FILLER_25_113
*831 FILLER_25_132
*832 FILLER_25_143
*833 FILLER_25_15
*834 FILLER_25_155
*835 FILLER_25_167
*836 FILLER_25_169
*837 FILLER_25_181
*838 FILLER_25_193
*839 FILLER_25_205
*840 FILLER_25_217
*841 FILLER_25_223
*842 FILLER_25_225
*843 FILLER_25_237
*844 FILLER_25_249
*845 FILLER_25_261
*846 FILLER_25_273
*847 FILLER_25_279
*848 FILLER_25_28
*849 FILLER_25_281
*850 FILLER_25_293
*851 FILLER_25_3
*852 FILLER_25_39
*853 FILLER_25_43
*854 FILLER_25_54
*855 FILLER_25_57
*856 FILLER_25_64
*857 FILLER_25_76
*858 FILLER_25_85
*859 FILLER_25_9
*860 FILLER_25_96
*861 FILLER_26_105
*862 FILLER_26_122
*863 FILLER_26_134
*864 FILLER_26_141
*865 FILLER_26_15
*866 FILLER_26_153
*867 FILLER_26_165
*868 FILLER_26_177
*869 FILLER_26_189
*870 FILLER_26_195
*871 FILLER_26_197
*872 FILLER_26_209
*873 FILLER_26_221
*874 FILLER_26_233
*875 FILLER_26_245
*876 FILLER_26_251
*877 FILLER_26_253
*878 FILLER_26_265
*879 FILLER_26_27
*880 FILLER_26_277
*881 FILLER_26_289
*882 FILLER_26_29
*883 FILLER_26_297
*884 FILLER_26_3
*885 FILLER_26_41
*886 FILLER_26_53
*887 FILLER_26_59
*888 FILLER_26_68
*889 FILLER_26_80
*890 FILLER_26_85
*891 FILLER_26_93
*892 FILLER_26_99
*893 FILLER_27_102
*894 FILLER_27_110
*895 FILLER_27_113
*896 FILLER_27_120
*897 FILLER_27_127
*898 FILLER_27_139
*899 FILLER_27_151
*900 FILLER_27_163
*901 FILLER_27_167
*902 FILLER_27_169
*903 FILLER_27_181
*904 FILLER_27_193
*905 FILLER_27_20
*906 FILLER_27_205
*907 FILLER_27_217
*908 FILLER_27_223
*909 FILLER_27_225
*910 FILLER_27_237
*911 FILLER_27_249
*912 FILLER_27_261
*913 FILLER_27_273
*914 FILLER_27_279
*915 FILLER_27_281
*916 FILLER_27_293
*917 FILLER_27_3
*918 FILLER_27_32
*919 FILLER_27_44
*920 FILLER_27_57
*921 FILLER_27_74
*922 FILLER_27_8
*923 FILLER_27_86
*924 FILLER_27_92
*925 FILLER_28_103
*926 FILLER_28_107
*927 FILLER_28_121
*928 FILLER_28_133
*929 FILLER_28_139
*930 FILLER_28_141
*931 FILLER_28_15
*932 FILLER_28_153
*933 FILLER_28_165
*934 FILLER_28_177
*935 FILLER_28_189
*936 FILLER_28_195
*937 FILLER_28_197
*938 FILLER_28_209
*939 FILLER_28_221
*940 FILLER_28_233
*941 FILLER_28_245
*942 FILLER_28_251
*943 FILLER_28_253
*944 FILLER_28_265
*945 FILLER_28_27
*946 FILLER_28_277
*947 FILLER_28_289
*948 FILLER_28_29
*949 FILLER_28_297
*950 FILLER_28_3
*951 FILLER_28_41
*952 FILLER_28_49
*953 FILLER_28_60
*954 FILLER_28_72
*955 FILLER_28_85
*956 FILLER_28_95
*957 FILLER_29_10
*958 FILLER_29_101
*959 FILLER_29_106
*960 FILLER_29_113
*961 FILLER_29_120
*962 FILLER_29_128
*963 FILLER_29_140
*964 FILLER_29_152
*965 FILLER_29_164
*966 FILLER_29_169
*967 FILLER_29_181
*968 FILLER_29_193
*969 FILLER_29_205
*970 FILLER_29_217
*971 FILLER_29_22
*972 FILLER_29_223
*973 FILLER_29_225
*974 FILLER_29_237
*975 FILLER_29_249
*976 FILLER_29_261
*977 FILLER_29_273
*978 FILLER_29_279
*979 FILLER_29_281
*980 FILLER_29_293
*981 FILLER_29_3
*982 FILLER_29_34
*983 FILLER_29_46
*984 FILLER_29_54
*985 FILLER_29_57
*986 FILLER_29_64
*987 FILLER_29_71
*988 FILLER_29_82
*989 FILLER_29_88
*990 FILLER_29_95
*991 FILLER_2_103
*992 FILLER_2_115
*993 FILLER_2_127
*994 FILLER_2_139
*995 FILLER_2_141
*996 FILLER_2_153
*997 FILLER_2_165
*998 FILLER_2_177
*999 FILLER_2_189
*1000 FILLER_2_195
*1001 FILLER_2_197
*1002 FILLER_2_209
*1003 FILLER_2_221
*1004 FILLER_2_233
*1005 FILLER_2_245
*1006 FILLER_2_251
*1007 FILLER_2_253
*1008 FILLER_2_26
*1009 FILLER_2_265
*1010 FILLER_2_277
*1011 FILLER_2_289
*1012 FILLER_2_29
*1013 FILLER_2_297
*1014 FILLER_2_3
*1015 FILLER_2_41
*1016 FILLER_2_65
*1017 FILLER_2_77
*1018 FILLER_2_83
*1019 FILLER_2_85
*1020 FILLER_30_108
*1021 FILLER_30_120
*1022 FILLER_30_132
*1023 FILLER_30_141
*1024 FILLER_30_15
*1025 FILLER_30_153
*1026 FILLER_30_165
*1027 FILLER_30_177
*1028 FILLER_30_189
*1029 FILLER_30_195
*1030 FILLER_30_197
*1031 FILLER_30_209
*1032 FILLER_30_221
*1033 FILLER_30_233
*1034 FILLER_30_245
*1035 FILLER_30_251
*1036 FILLER_30_253
*1037 FILLER_30_265
*1038 FILLER_30_27
*1039 FILLER_30_277
*1040 FILLER_30_289
*1041 FILLER_30_29
*1042 FILLER_30_297
*1043 FILLER_30_3
*1044 FILLER_30_36
*1045 FILLER_30_48
*1046 FILLER_30_54
*1047 FILLER_30_60
*1048 FILLER_30_66
*1049 FILLER_30_71
*1050 FILLER_30_82
*1051 FILLER_30_85
*1052 FILLER_30_96
*1053 FILLER_31_101
*1054 FILLER_31_108
*1055 FILLER_31_113
*1056 FILLER_31_125
*1057 FILLER_31_137
*1058 FILLER_31_149
*1059 FILLER_31_15
*1060 FILLER_31_161
*1061 FILLER_31_167
*1062 FILLER_31_169
*1063 FILLER_31_181
*1064 FILLER_31_193
*1065 FILLER_31_205
*1066 FILLER_31_217
*1067 FILLER_31_223
*1068 FILLER_31_225
*1069 FILLER_31_237
*1070 FILLER_31_249
*1071 FILLER_31_261
*1072 FILLER_31_27
*1073 FILLER_31_273
*1074 FILLER_31_279
*1075 FILLER_31_281
*1076 FILLER_31_293
*1077 FILLER_31_3
*1078 FILLER_31_39
*1079 FILLER_31_51
*1080 FILLER_31_55
*1081 FILLER_31_57
*1082 FILLER_31_69
*1083 FILLER_31_73
*1084 FILLER_31_78
*1085 FILLER_31_86
*1086 FILLER_31_93
*1087 FILLER_32_103
*1088 FILLER_32_115
*1089 FILLER_32_127
*1090 FILLER_32_139
*1091 FILLER_32_141
*1092 FILLER_32_15
*1093 FILLER_32_153
*1094 FILLER_32_165
*1095 FILLER_32_177
*1096 FILLER_32_189
*1097 FILLER_32_195
*1098 FILLER_32_197
*1099 FILLER_32_209
*1100 FILLER_32_221
*1101 FILLER_32_233
*1102 FILLER_32_245
*1103 FILLER_32_251
*1104 FILLER_32_253
*1105 FILLER_32_265
*1106 FILLER_32_27
*1107 FILLER_32_277
*1108 FILLER_32_289
*1109 FILLER_32_29
*1110 FILLER_32_297
*1111 FILLER_32_3
*1112 FILLER_32_41
*1113 FILLER_32_53
*1114 FILLER_32_66
*1115 FILLER_32_78
*1116 FILLER_32_85
*1117 FILLER_32_94
*1118 FILLER_33_102
*1119 FILLER_33_110
*1120 FILLER_33_113
*1121 FILLER_33_125
*1122 FILLER_33_137
*1123 FILLER_33_149
*1124 FILLER_33_15
*1125 FILLER_33_161
*1126 FILLER_33_167
*1127 FILLER_33_169
*1128 FILLER_33_181
*1129 FILLER_33_193
*1130 FILLER_33_205
*1131 FILLER_33_217
*1132 FILLER_33_223
*1133 FILLER_33_225
*1134 FILLER_33_237
*1135 FILLER_33_249
*1136 FILLER_33_261
*1137 FILLER_33_27
*1138 FILLER_33_273
*1139 FILLER_33_279
*1140 FILLER_33_281
*1141 FILLER_33_293
*1142 FILLER_33_3
*1143 FILLER_33_39
*1144 FILLER_33_51
*1145 FILLER_33_55
*1146 FILLER_33_57
*1147 FILLER_33_63
*1148 FILLER_33_71
*1149 FILLER_33_78
*1150 FILLER_33_90
*1151 FILLER_34_103
*1152 FILLER_34_113
*1153 FILLER_34_125
*1154 FILLER_34_137
*1155 FILLER_34_141
*1156 FILLER_34_15
*1157 FILLER_34_153
*1158 FILLER_34_165
*1159 FILLER_34_177
*1160 FILLER_34_189
*1161 FILLER_34_195
*1162 FILLER_34_197
*1163 FILLER_34_209
*1164 FILLER_34_221
*1165 FILLER_34_233
*1166 FILLER_34_245
*1167 FILLER_34_251
*1168 FILLER_34_253
*1169 FILLER_34_265
*1170 FILLER_34_27
*1171 FILLER_34_277
*1172 FILLER_34_289
*1173 FILLER_34_29
*1174 FILLER_34_297
*1175 FILLER_34_3
*1176 FILLER_34_41
*1177 FILLER_34_53
*1178 FILLER_34_60
*1179 FILLER_34_72
*1180 FILLER_34_82
*1181 FILLER_34_85
*1182 FILLER_34_95
*1183 FILLER_35_105
*1184 FILLER_35_111
*1185 FILLER_35_113
*1186 FILLER_35_125
*1187 FILLER_35_137
*1188 FILLER_35_149
*1189 FILLER_35_15
*1190 FILLER_35_161
*1191 FILLER_35_167
*1192 FILLER_35_169
*1193 FILLER_35_181
*1194 FILLER_35_193
*1195 FILLER_35_205
*1196 FILLER_35_217
*1197 FILLER_35_223
*1198 FILLER_35_225
*1199 FILLER_35_237
*1200 FILLER_35_249
*1201 FILLER_35_261
*1202 FILLER_35_27
*1203 FILLER_35_273
*1204 FILLER_35_279
*1205 FILLER_35_281
*1206 FILLER_35_293
*1207 FILLER_35_3
*1208 FILLER_35_39
*1209 FILLER_35_51
*1210 FILLER_35_55
*1211 FILLER_35_57
*1212 FILLER_35_69
*1213 FILLER_35_81
*1214 FILLER_35_93
*1215 FILLER_36_109
*1216 FILLER_36_121
*1217 FILLER_36_133
*1218 FILLER_36_139
*1219 FILLER_36_141
*1220 FILLER_36_15
*1221 FILLER_36_153
*1222 FILLER_36_165
*1223 FILLER_36_177
*1224 FILLER_36_189
*1225 FILLER_36_195
*1226 FILLER_36_197
*1227 FILLER_36_209
*1228 FILLER_36_221
*1229 FILLER_36_233
*1230 FILLER_36_245
*1231 FILLER_36_251
*1232 FILLER_36_253
*1233 FILLER_36_265
*1234 FILLER_36_27
*1235 FILLER_36_277
*1236 FILLER_36_289
*1237 FILLER_36_29
*1238 FILLER_36_297
*1239 FILLER_36_3
*1240 FILLER_36_38
*1241 FILLER_36_50
*1242 FILLER_36_56
*1243 FILLER_36_61
*1244 FILLER_36_73
*1245 FILLER_36_81
*1246 FILLER_36_85
*1247 FILLER_36_97
*1248 FILLER_37_105
*1249 FILLER_37_111
*1250 FILLER_37_113
*1251 FILLER_37_124
*1252 FILLER_37_136
*1253 FILLER_37_148
*1254 FILLER_37_15
*1255 FILLER_37_160
*1256 FILLER_37_169
*1257 FILLER_37_181
*1258 FILLER_37_193
*1259 FILLER_37_205
*1260 FILLER_37_217
*1261 FILLER_37_223
*1262 FILLER_37_225
*1263 FILLER_37_237
*1264 FILLER_37_249
*1265 FILLER_37_261
*1266 FILLER_37_27
*1267 FILLER_37_273
*1268 FILLER_37_279
*1269 FILLER_37_281
*1270 FILLER_37_293
*1271 FILLER_37_3
*1272 FILLER_37_39
*1273 FILLER_37_51
*1274 FILLER_37_55
*1275 FILLER_37_57
*1276 FILLER_37_69
*1277 FILLER_37_81
*1278 FILLER_37_93
*1279 FILLER_38_109
*1280 FILLER_38_121
*1281 FILLER_38_133
*1282 FILLER_38_139
*1283 FILLER_38_141
*1284 FILLER_38_15
*1285 FILLER_38_153
*1286 FILLER_38_165
*1287 FILLER_38_177
*1288 FILLER_38_189
*1289 FILLER_38_195
*1290 FILLER_38_197
*1291 FILLER_38_209
*1292 FILLER_38_221
*1293 FILLER_38_233
*1294 FILLER_38_245
*1295 FILLER_38_251
*1296 FILLER_38_253
*1297 FILLER_38_265
*1298 FILLER_38_27
*1299 FILLER_38_277
*1300 FILLER_38_289
*1301 FILLER_38_29
*1302 FILLER_38_297
*1303 FILLER_38_3
*1304 FILLER_38_41
*1305 FILLER_38_53
*1306 FILLER_38_65
*1307 FILLER_38_77
*1308 FILLER_38_83
*1309 FILLER_38_85
*1310 FILLER_38_97
*1311 FILLER_39_105
*1312 FILLER_39_111
*1313 FILLER_39_113
*1314 FILLER_39_117
*1315 FILLER_39_126
*1316 FILLER_39_138
*1317 FILLER_39_15
*1318 FILLER_39_150
*1319 FILLER_39_162
*1320 FILLER_39_169
*1321 FILLER_39_181
*1322 FILLER_39_193
*1323 FILLER_39_205
*1324 FILLER_39_217
*1325 FILLER_39_223
*1326 FILLER_39_225
*1327 FILLER_39_237
*1328 FILLER_39_249
*1329 FILLER_39_261
*1330 FILLER_39_27
*1331 FILLER_39_273
*1332 FILLER_39_279
*1333 FILLER_39_281
*1334 FILLER_39_293
*1335 FILLER_39_3
*1336 FILLER_39_39
*1337 FILLER_39_51
*1338 FILLER_39_55
*1339 FILLER_39_57
*1340 FILLER_39_69
*1341 FILLER_39_81
*1342 FILLER_39_93
*1343 FILLER_3_105
*1344 FILLER_3_111
*1345 FILLER_3_113
*1346 FILLER_3_118
*1347 FILLER_3_130
*1348 FILLER_3_142
*1349 FILLER_3_154
*1350 FILLER_3_166
*1351 FILLER_3_169
*1352 FILLER_3_181
*1353 FILLER_3_193
*1354 FILLER_3_205
*1355 FILLER_3_217
*1356 FILLER_3_223
*1357 FILLER_3_225
*1358 FILLER_3_237
*1359 FILLER_3_249
*1360 FILLER_3_25
*1361 FILLER_3_261
*1362 FILLER_3_273
*1363 FILLER_3_279
*1364 FILLER_3_281
*1365 FILLER_3_293
*1366 FILLER_3_3
*1367 FILLER_3_54
*1368 FILLER_3_57
*1369 FILLER_3_61
*1370 FILLER_3_78
*1371 FILLER_3_98
*1372 FILLER_40_109
*1373 FILLER_40_121
*1374 FILLER_40_133
*1375 FILLER_40_139
*1376 FILLER_40_141
*1377 FILLER_40_153
*1378 FILLER_40_165
*1379 FILLER_40_177
*1380 FILLER_40_189
*1381 FILLER_40_195
*1382 FILLER_40_197
*1383 FILLER_40_209
*1384 FILLER_40_21
*1385 FILLER_40_221
*1386 FILLER_40_233
*1387 FILLER_40_245
*1388 FILLER_40_251
*1389 FILLER_40_253
*1390 FILLER_40_265
*1391 FILLER_40_27
*1392 FILLER_40_277
*1393 FILLER_40_289
*1394 FILLER_40_29
*1395 FILLER_40_297
*1396 FILLER_40_3
*1397 FILLER_40_41
*1398 FILLER_40_53
*1399 FILLER_40_65
*1400 FILLER_40_77
*1401 FILLER_40_83
*1402 FILLER_40_85
*1403 FILLER_40_9
*1404 FILLER_40_97
*1405 FILLER_41_111
*1406 FILLER_41_113
*1407 FILLER_41_125
*1408 FILLER_41_137
*1409 FILLER_41_149
*1410 FILLER_41_15
*1411 FILLER_41_161
*1412 FILLER_41_167
*1413 FILLER_41_169
*1414 FILLER_41_181
*1415 FILLER_41_193
*1416 FILLER_41_205
*1417 FILLER_41_217
*1418 FILLER_41_223
*1419 FILLER_41_225
*1420 FILLER_41_237
*1421 FILLER_41_249
*1422 FILLER_41_261
*1423 FILLER_41_27
*1424 FILLER_41_273
*1425 FILLER_41_279
*1426 FILLER_41_281
*1427 FILLER_41_293
*1428 FILLER_41_3
*1429 FILLER_41_39
*1430 FILLER_41_51
*1431 FILLER_41_55
*1432 FILLER_41_57
*1433 FILLER_41_63
*1434 FILLER_41_75
*1435 FILLER_41_87
*1436 FILLER_41_99
*1437 FILLER_42_109
*1438 FILLER_42_121
*1439 FILLER_42_133
*1440 FILLER_42_139
*1441 FILLER_42_141
*1442 FILLER_42_15
*1443 FILLER_42_153
*1444 FILLER_42_165
*1445 FILLER_42_177
*1446 FILLER_42_189
*1447 FILLER_42_195
*1448 FILLER_42_197
*1449 FILLER_42_209
*1450 FILLER_42_221
*1451 FILLER_42_233
*1452 FILLER_42_245
*1453 FILLER_42_251
*1454 FILLER_42_253
*1455 FILLER_42_265
*1456 FILLER_42_27
*1457 FILLER_42_277
*1458 FILLER_42_289
*1459 FILLER_42_29
*1460 FILLER_42_297
*1461 FILLER_42_3
*1462 FILLER_42_41
*1463 FILLER_42_53
*1464 FILLER_42_65
*1465 FILLER_42_77
*1466 FILLER_42_83
*1467 FILLER_42_85
*1468 FILLER_42_97
*1469 FILLER_43_105
*1470 FILLER_43_111
*1471 FILLER_43_113
*1472 FILLER_43_125
*1473 FILLER_43_137
*1474 FILLER_43_149
*1475 FILLER_43_15
*1476 FILLER_43_161
*1477 FILLER_43_167
*1478 FILLER_43_169
*1479 FILLER_43_181
*1480 FILLER_43_193
*1481 FILLER_43_205
*1482 FILLER_43_217
*1483 FILLER_43_223
*1484 FILLER_43_225
*1485 FILLER_43_237
*1486 FILLER_43_249
*1487 FILLER_43_261
*1488 FILLER_43_27
*1489 FILLER_43_273
*1490 FILLER_43_279
*1491 FILLER_43_281
*1492 FILLER_43_293
*1493 FILLER_43_3
*1494 FILLER_43_39
*1495 FILLER_43_51
*1496 FILLER_43_55
*1497 FILLER_43_57
*1498 FILLER_43_69
*1499 FILLER_43_81
*1500 FILLER_43_93
*1501 FILLER_44_109
*1502 FILLER_44_121
*1503 FILLER_44_133
*1504 FILLER_44_139
*1505 FILLER_44_141
*1506 FILLER_44_15
*1507 FILLER_44_153
*1508 FILLER_44_165
*1509 FILLER_44_177
*1510 FILLER_44_189
*1511 FILLER_44_195
*1512 FILLER_44_197
*1513 FILLER_44_209
*1514 FILLER_44_221
*1515 FILLER_44_233
*1516 FILLER_44_245
*1517 FILLER_44_251
*1518 FILLER_44_253
*1519 FILLER_44_265
*1520 FILLER_44_27
*1521 FILLER_44_277
*1522 FILLER_44_289
*1523 FILLER_44_29
*1524 FILLER_44_297
*1525 FILLER_44_3
*1526 FILLER_44_41
*1527 FILLER_44_53
*1528 FILLER_44_65
*1529 FILLER_44_77
*1530 FILLER_44_83
*1531 FILLER_44_85
*1532 FILLER_44_97
*1533 FILLER_45_105
*1534 FILLER_45_111
*1535 FILLER_45_113
*1536 FILLER_45_125
*1537 FILLER_45_137
*1538 FILLER_45_149
*1539 FILLER_45_15
*1540 FILLER_45_161
*1541 FILLER_45_167
*1542 FILLER_45_169
*1543 FILLER_45_181
*1544 FILLER_45_193
*1545 FILLER_45_205
*1546 FILLER_45_217
*1547 FILLER_45_223
*1548 FILLER_45_225
*1549 FILLER_45_237
*1550 FILLER_45_249
*1551 FILLER_45_261
*1552 FILLER_45_27
*1553 FILLER_45_273
*1554 FILLER_45_279
*1555 FILLER_45_281
*1556 FILLER_45_293
*1557 FILLER_45_3
*1558 FILLER_45_39
*1559 FILLER_45_51
*1560 FILLER_45_55
*1561 FILLER_45_57
*1562 FILLER_45_69
*1563 FILLER_45_81
*1564 FILLER_45_93
*1565 FILLER_46_109
*1566 FILLER_46_121
*1567 FILLER_46_133
*1568 FILLER_46_139
*1569 FILLER_46_141
*1570 FILLER_46_15
*1571 FILLER_46_153
*1572 FILLER_46_165
*1573 FILLER_46_177
*1574 FILLER_46_189
*1575 FILLER_46_195
*1576 FILLER_46_197
*1577 FILLER_46_209
*1578 FILLER_46_221
*1579 FILLER_46_233
*1580 FILLER_46_245
*1581 FILLER_46_251
*1582 FILLER_46_253
*1583 FILLER_46_265
*1584 FILLER_46_27
*1585 FILLER_46_277
*1586 FILLER_46_289
*1587 FILLER_46_29
*1588 FILLER_46_297
*1589 FILLER_46_3
*1590 FILLER_46_41
*1591 FILLER_46_53
*1592 FILLER_46_65
*1593 FILLER_46_77
*1594 FILLER_46_83
*1595 FILLER_46_85
*1596 FILLER_46_97
*1597 FILLER_47_105
*1598 FILLER_47_111
*1599 FILLER_47_113
*1600 FILLER_47_125
*1601 FILLER_47_137
*1602 FILLER_47_149
*1603 FILLER_47_15
*1604 FILLER_47_161
*1605 FILLER_47_167
*1606 FILLER_47_169
*1607 FILLER_47_181
*1608 FILLER_47_193
*1609 FILLER_47_205
*1610 FILLER_47_217
*1611 FILLER_47_223
*1612 FILLER_47_225
*1613 FILLER_47_237
*1614 FILLER_47_249
*1615 FILLER_47_261
*1616 FILLER_47_27
*1617 FILLER_47_273
*1618 FILLER_47_279
*1619 FILLER_47_281
*1620 FILLER_47_293
*1621 FILLER_47_3
*1622 FILLER_47_39
*1623 FILLER_47_51
*1624 FILLER_47_55
*1625 FILLER_47_57
*1626 FILLER_47_69
*1627 FILLER_47_81
*1628 FILLER_47_93
*1629 FILLER_48_109
*1630 FILLER_48_121
*1631 FILLER_48_133
*1632 FILLER_48_139
*1633 FILLER_48_141
*1634 FILLER_48_15
*1635 FILLER_48_153
*1636 FILLER_48_165
*1637 FILLER_48_177
*1638 FILLER_48_189
*1639 FILLER_48_195
*1640 FILLER_48_197
*1641 FILLER_48_209
*1642 FILLER_48_221
*1643 FILLER_48_233
*1644 FILLER_48_245
*1645 FILLER_48_251
*1646 FILLER_48_253
*1647 FILLER_48_265
*1648 FILLER_48_27
*1649 FILLER_48_277
*1650 FILLER_48_289
*1651 FILLER_48_29
*1652 FILLER_48_297
*1653 FILLER_48_3
*1654 FILLER_48_41
*1655 FILLER_48_53
*1656 FILLER_48_65
*1657 FILLER_48_77
*1658 FILLER_48_83
*1659 FILLER_48_85
*1660 FILLER_48_97
*1661 FILLER_49_105
*1662 FILLER_49_111
*1663 FILLER_49_113
*1664 FILLER_49_125
*1665 FILLER_49_137
*1666 FILLER_49_149
*1667 FILLER_49_15
*1668 FILLER_49_161