*SPEF "ieee 1481-1999"
*DESIGN "zoechip"
*DATE "11:11:11 Fri 11 11, 1111"
*VENDOR "OpenRCX"
*PROGRAM "Parallel Extraction"
*VERSION "1.0"
*DESIGN_FLOW "NAME_SCOPE LOCAL" "PIN_CAP NONE"
*DIVIDER /
*DELIMITER :
*BUS_DELIMITER []
*T_UNIT 1 NS
*C_UNIT 1 PF
*R_UNIT 1 OHM
*L_UNIT 1 HENRY

*NAME_MAP
*1 io_in[0]
*2 io_in[1]
*3 io_in[2]
*4 io_in[3]
*5 io_in[4]
*6 io_in[5]
*7 io_in[6]
*8 io_in[7]
*9 io_out[0]
*10 io_out[1]
*11 io_out[2]
*12 io_out[3]
*13 io_out[4]
*14 io_out[5]
*15 io_out[6]
*16 net4
*19 A
*20 B
*21 C
*22 D
*23 _00_
*24 _01_
*25 clknet_0__00_
*26 clknet_0_io_in[0]
*27 clknet_1_0__leaf__00_
*28 clknet_1_0__leaf_io_in[0]
*29 clknet_1_1__leaf__00_
*30 clknet_1_1__leaf_io_in[0]
*31 net1
*32 net2
*33 net3
*34 net5
*35 net6
*36 FILLER_0_109
*37 FILLER_0_113
*38 FILLER_0_125
*39 FILLER_0_137
*40 FILLER_0_141
*41 FILLER_0_15
*42 FILLER_0_153
*43 FILLER_0_165
*44 FILLER_0_169
*45 FILLER_0_181
*46 FILLER_0_193
*47 FILLER_0_197
*48 FILLER_0_209
*49 FILLER_0_221
*50 FILLER_0_225
*51 FILLER_0_237
*52 FILLER_0_249
*53 FILLER_0_253
*54 FILLER_0_265
*55 FILLER_0_27
*56 FILLER_0_277
*57 FILLER_0_281
*58 FILLER_0_29
*59 FILLER_0_293
*60 FILLER_0_3
*61 FILLER_0_41
*62 FILLER_0_53
*63 FILLER_0_57
*64 FILLER_0_69
*65 FILLER_0_81
*66 FILLER_0_85
*67 FILLER_0_97
*68 FILLER_10_109
*69 FILLER_10_121
*70 FILLER_10_133
*71 FILLER_10_139
*72 FILLER_10_141
*73 FILLER_10_15
*74 FILLER_10_153
*75 FILLER_10_165
*76 FILLER_10_177
*77 FILLER_10_189
*78 FILLER_10_195
*79 FILLER_10_197
*80 FILLER_10_209
*81 FILLER_10_221
*82 FILLER_10_233
*83 FILLER_10_245
*84 FILLER_10_251
*85 FILLER_10_253
*86 FILLER_10_265
*87 FILLER_10_27
*88 FILLER_10_277
*89 FILLER_10_289
*90 FILLER_10_29
*91 FILLER_10_297
*92 FILLER_10_3
*93 FILLER_10_41
*94 FILLER_10_53
*95 FILLER_10_65
*96 FILLER_10_77
*97 FILLER_10_83
*98 FILLER_10_85
*99 FILLER_10_97
*100 FILLER_11_105
*101 FILLER_11_111
*102 FILLER_11_113
*103 FILLER_11_125
*104 FILLER_11_137
*105 FILLER_11_149
*106 FILLER_11_15
*107 FILLER_11_161
*108 FILLER_11_167
*109 FILLER_11_169
*110 FILLER_11_181
*111 FILLER_11_193
*112 FILLER_11_205
*113 FILLER_11_217
*114 FILLER_11_223
*115 FILLER_11_225
*116 FILLER_11_237
*117 FILLER_11_249
*118 FILLER_11_261
*119 FILLER_11_27
*120 FILLER_11_273
*121 FILLER_11_279
*122 FILLER_11_281
*123 FILLER_11_293
*124 FILLER_11_3
*125 FILLER_11_39
*126 FILLER_11_51
*127 FILLER_11_55
*128 FILLER_11_57
*129 FILLER_11_69
*130 FILLER_11_81
*131 FILLER_11_93
*132 FILLER_12_109
*133 FILLER_12_121
*134 FILLER_12_133
*135 FILLER_12_139
*136 FILLER_12_141
*137 FILLER_12_153
*138 FILLER_12_165
*139 FILLER_12_177
*140 FILLER_12_189
*141 FILLER_12_195
*142 FILLER_12_197
*143 FILLER_12_209
*144 FILLER_12_21
*145 FILLER_12_221
*146 FILLER_12_233
*147 FILLER_12_245
*148 FILLER_12_251
*149 FILLER_12_253
*150 FILLER_12_265
*151 FILLER_12_27
*152 FILLER_12_277
*153 FILLER_12_289
*154 FILLER_12_29
*155 FILLER_12_297
*156 FILLER_12_3
*157 FILLER_12_41
*158 FILLER_12_53
*159 FILLER_12_65
*160 FILLER_12_77
*161 FILLER_12_83
*162 FILLER_12_85
*163 FILLER_12_9
*164 FILLER_12_97
*165 FILLER_13_105
*166 FILLER_13_111
*167 FILLER_13_113
*168 FILLER_13_125
*169 FILLER_13_137
*170 FILLER_13_149
*171 FILLER_13_15
*172 FILLER_13_161
*173 FILLER_13_167
*174 FILLER_13_169
*175 FILLER_13_181
*176 FILLER_13_193
*177 FILLER_13_205
*178 FILLER_13_217
*179 FILLER_13_223
*180 FILLER_13_225
*181 FILLER_13_237
*182 FILLER_13_249
*183 FILLER_13_261
*184 FILLER_13_27
*185 FILLER_13_273
*186 FILLER_13_279
*187 FILLER_13_281
*188 FILLER_13_293
*189 FILLER_13_3
*190 FILLER_13_39
*191 FILLER_13_51
*192 FILLER_13_55
*193 FILLER_13_57
*194 FILLER_13_69
*195 FILLER_13_81
*196 FILLER_13_93
*197 FILLER_14_109
*198 FILLER_14_121
*199 FILLER_14_133
*200 FILLER_14_139
*201 FILLER_14_141
*202 FILLER_14_15
*203 FILLER_14_153
*204 FILLER_14_165
*205 FILLER_14_177
*206 FILLER_14_189
*207 FILLER_14_195
*208 FILLER_14_197
*209 FILLER_14_209
*210 FILLER_14_221
*211 FILLER_14_233
*212 FILLER_14_245
*213 FILLER_14_251
*214 FILLER_14_253
*215 FILLER_14_265
*216 FILLER_14_27
*217 FILLER_14_277
*218 FILLER_14_289
*219 FILLER_14_29
*220 FILLER_14_297
*221 FILLER_14_3
*222 FILLER_14_41
*223 FILLER_14_53
*224 FILLER_14_65
*225 FILLER_14_77
*226 FILLER_14_83
*227 FILLER_14_85
*228 FILLER_14_97
*229 FILLER_15_105
*230 FILLER_15_111
*231 FILLER_15_113
*232 FILLER_15_125
*233 FILLER_15_137
*234 FILLER_15_149
*235 FILLER_15_15
*236 FILLER_15_161
*237 FILLER_15_167
*238 FILLER_15_169
*239 FILLER_15_181
*240 FILLER_15_193
*241 FILLER_15_205
*242 FILLER_15_217
*243 FILLER_15_223
*244 FILLER_15_225
*245 FILLER_15_237
*246 FILLER_15_249
*247 FILLER_15_261
*248 FILLER_15_27
*249 FILLER_15_273
*250 FILLER_15_279
*251 FILLER_15_281
*252 FILLER_15_293
*253 FILLER_15_3
*254 FILLER_15_39
*255 FILLER_15_51
*256 FILLER_15_55
*257 FILLER_15_57
*258 FILLER_15_69
*259 FILLER_15_81
*260 FILLER_15_93
*261 FILLER_16_109
*262 FILLER_16_121
*263 FILLER_16_133
*264 FILLER_16_139
*265 FILLER_16_141
*266 FILLER_16_15
*267 FILLER_16_153
*268 FILLER_16_165
*269 FILLER_16_177
*270 FILLER_16_189
*271 FILLER_16_195
*272 FILLER_16_197
*273 FILLER_16_209
*274 FILLER_16_221
*275 FILLER_16_233
*276 FILLER_16_245
*277 FILLER_16_251
*278 FILLER_16_253
*279 FILLER_16_265
*280 FILLER_16_27
*281 FILLER_16_277
*282 FILLER_16_289
*283 FILLER_16_29
*284 FILLER_16_297
*285 FILLER_16_3
*286 FILLER_16_41
*287 FILLER_16_53
*288 FILLER_16_65
*289 FILLER_16_77
*290 FILLER_16_83
*291 FILLER_16_85
*292 FILLER_16_97
*293 FILLER_17_105
*294 FILLER_17_111
*295 FILLER_17_113
*296 FILLER_17_125
*297 FILLER_17_137
*298 FILLER_17_149
*299 FILLER_17_15
*300 FILLER_17_161
*301 FILLER_17_167
*302 FILLER_17_169
*303 FILLER_17_181
*304 FILLER_17_193
*305 FILLER_17_205
*306 FILLER_17_217
*307 FILLER_17_223
*308 FILLER_17_225
*309 FILLER_17_237
*310 FILLER_17_249
*311 FILLER_17_261
*312 FILLER_17_27
*313 FILLER_17_273
*314 FILLER_17_279
*315 FILLER_17_281
*316 FILLER_17_293
*317 FILLER_17_3
*318 FILLER_17_39
*319 FILLER_17_51
*320 FILLER_17_55
*321 FILLER_17_57
*322 FILLER_17_69
*323 FILLER_17_81
*324 FILLER_17_93
*325 FILLER_18_109
*326 FILLER_18_121
*327 FILLER_18_133
*328 FILLER_18_139
*329 FILLER_18_141
*330 FILLER_18_15
*331 FILLER_18_153
*332 FILLER_18_165
*333 FILLER_18_177
*334 FILLER_18_189
*335 FILLER_18_195
*336 FILLER_18_197
*337 FILLER_18_209
*338 FILLER_18_221
*339 FILLER_18_233
*340 FILLER_18_245
*341 FILLER_18_251
*342 FILLER_18_253
*343 FILLER_18_265
*344 FILLER_18_27
*345 FILLER_18_277
*346 FILLER_18_289
*347 FILLER_18_29
*348 FILLER_18_297
*349 FILLER_18_3
*350 FILLER_18_41
*351 FILLER_18_53
*352 FILLER_18_65
*353 FILLER_18_77
*354 FILLER_18_83
*355 FILLER_18_85
*356 FILLER_18_97
*357 FILLER_19_105
*358 FILLER_19_111
*359 FILLER_19_113
*360 FILLER_19_125
*361 FILLER_19_137
*362 FILLER_19_149
*363 FILLER_19_15
*364 FILLER_19_161
*365 FILLER_19_167
*366 FILLER_19_169
*367 FILLER_19_181
*368 FILLER_19_193
*369 FILLER_19_205
*370 FILLER_19_217
*371 FILLER_19_223
*372 FILLER_19_225
*373 FILLER_19_237
*374 FILLER_19_249
*375 FILLER_19_261
*376 FILLER_19_27
*377 FILLER_19_273
*378 FILLER_19_279
*379 FILLER_19_281
*380 FILLER_19_293
*381 FILLER_19_3
*382 FILLER_19_39
*383 FILLER_19_51
*384 FILLER_19_55
*385 FILLER_19_57
*386 FILLER_19_69
*387 FILLER_19_81
*388 FILLER_19_93
*389 FILLER_1_105
*390 FILLER_1_111
*391 FILLER_1_113
*392 FILLER_1_125
*393 FILLER_1_137
*394 FILLER_1_149
*395 FILLER_1_161
*396 FILLER_1_167
*397 FILLER_1_169
*398 FILLER_1_181
*399 FILLER_1_193
*400 FILLER_1_205
*401 FILLER_1_21
*402 FILLER_1_217
*403 FILLER_1_223
*404 FILLER_1_225
*405 FILLER_1_237
*406 FILLER_1_249
*407 FILLER_1_261
*408 FILLER_1_273
*409 FILLER_1_279
*410 FILLER_1_281
*411 FILLER_1_293
*412 FILLER_1_3
*413 FILLER_1_33
*414 FILLER_1_45
*415 FILLER_1_53
*416 FILLER_1_57
*417 FILLER_1_69
*418 FILLER_1_81
*419 FILLER_1_9
*420 FILLER_1_93
*421 FILLER_20_109
*422 FILLER_20_121
*423 FILLER_20_133
*424 FILLER_20_139
*425 FILLER_20_141
*426 FILLER_20_15
*427 FILLER_20_153
*428 FILLER_20_165
*429 FILLER_20_177
*430 FILLER_20_189
*431 FILLER_20_195
*432 FILLER_20_197
*433 FILLER_20_209
*434 FILLER_20_221
*435 FILLER_20_233
*436 FILLER_20_245
*437 FILLER_20_251
*438 FILLER_20_253
*439 FILLER_20_265
*440 FILLER_20_27
*441 FILLER_20_277
*442 FILLER_20_289
*443 FILLER_20_29
*444 FILLER_20_297
*445 FILLER_20_3
*446 FILLER_20_41
*447 FILLER_20_53
*448 FILLER_20_65
*449 FILLER_20_77
*450 FILLER_20_83
*451 FILLER_20_85
*452 FILLER_20_97
*453 FILLER_21_105
*454 FILLER_21_111
*455 FILLER_21_113
*456 FILLER_21_125
*457 FILLER_21_137
*458 FILLER_21_149
*459 FILLER_21_15
*460 FILLER_21_161
*461 FILLER_21_167
*462 FILLER_21_169
*463 FILLER_21_181
*464 FILLER_21_193
*465 FILLER_21_205
*466 FILLER_21_217
*467 FILLER_21_223
*468 FILLER_21_225
*469 FILLER_21_237
*470 FILLER_21_249
*471 FILLER_21_261
*472 FILLER_21_27
*473 FILLER_21_273
*474 FILLER_21_279
*475 FILLER_21_281
*476 FILLER_21_293
*477 FILLER_21_3
*478 FILLER_21_39
*479 FILLER_21_51
*480 FILLER_21_55
*481 FILLER_21_57
*482 FILLER_21_69
*483 FILLER_21_81
*484 FILLER_21_93
*485 FILLER_22_109
*486 FILLER_22_121
*487 FILLER_22_133
*488 FILLER_22_139
*489 FILLER_22_141
*490 FILLER_22_153
*491 FILLER_22_16
*492 FILLER_22_165
*493 FILLER_22_177
*494 FILLER_22_189
*495 FILLER_22_195
*496 FILLER_22_197
*497 FILLER_22_209
*498 FILLER_22_221
*499 FILLER_22_233
*500 FILLER_22_245
*501 FILLER_22_251
*502 FILLER_22_253
*503 FILLER_22_265
*504 FILLER_22_277
*505 FILLER_22_289
*506 FILLER_22_29
*507 FILLER_22_297
*508 FILLER_22_3
*509 FILLER_22_41
*510 FILLER_22_53
*511 FILLER_22_65
*512 FILLER_22_77
*513 FILLER_22_83
*514 FILLER_22_85
*515 FILLER_22_9
*516 FILLER_22_97
*517 FILLER_23_105
*518 FILLER_23_111
*519 FILLER_23_113
*520 FILLER_23_125
*521 FILLER_23_137
*522 FILLER_23_149
*523 FILLER_23_161
*524 FILLER_23_167
*525 FILLER_23_169
*526 FILLER_23_18
*527 FILLER_23_181
*528 FILLER_23_193
*529 FILLER_23_205
*530 FILLER_23_217
*531 FILLER_23_223
*532 FILLER_23_225
*533 FILLER_23_237
*534 FILLER_23_249
*535 FILLER_23_261
*536 FILLER_23_273
*537 FILLER_23_279
*538 FILLER_23_281
*539 FILLER_23_293
*540 FILLER_23_3
*541 FILLER_23_30
*542 FILLER_23_42
*543 FILLER_23_54
*544 FILLER_23_57
*545 FILLER_23_69
*546 FILLER_23_81
*547 FILLER_23_93
*548 FILLER_24_109
*549 FILLER_24_121
*550 FILLER_24_133
*551 FILLER_24_139
*552 FILLER_24_141
*553 FILLER_24_15
*554 FILLER_24_153
*555 FILLER_24_165
*556 FILLER_24_177
*557 FILLER_24_189
*558 FILLER_24_195
*559 FILLER_24_197
*560 FILLER_24_209
*561 FILLER_24_221
*562 FILLER_24_233
*563 FILLER_24_245
*564 FILLER_24_251
*565 FILLER_24_253
*566 FILLER_24_265
*567 FILLER_24_27
*568 FILLER_24_277
*569 FILLER_24_289
*570 FILLER_24_29
*571 FILLER_24_297
*572 FILLER_24_3
*573 FILLER_24_41
*574 FILLER_24_53
*575 FILLER_24_65
*576 FILLER_24_77
*577 FILLER_24_83
*578 FILLER_24_85
*579 FILLER_24_97
*580 FILLER_25_105
*581 FILLER_25_111
*582 FILLER_25_113
*583 FILLER_25_125
*584 FILLER_25_137
*585 FILLER_25_149
*586 FILLER_25_15
*587 FILLER_25_161
*588 FILLER_25_167
*589 FILLER_25_169
*590 FILLER_25_181
*591 FILLER_25_193
*592 FILLER_25_205
*593 FILLER_25_217
*594 FILLER_25_223
*595 FILLER_25_225
*596 FILLER_25_237
*597 FILLER_25_249
*598 FILLER_25_261
*599 FILLER_25_27
*600 FILLER_25_273
*601 FILLER_25_279
*602 FILLER_25_281
*603 FILLER_25_293
*604 FILLER_25_3
*605 FILLER_25_39
*606 FILLER_25_51
*607 FILLER_25_55
*608 FILLER_25_57
*609 FILLER_25_69
*610 FILLER_25_81
*611 FILLER_25_93
*612 FILLER_26_109
*613 FILLER_26_121
*614 FILLER_26_133
*615 FILLER_26_139
*616 FILLER_26_141
*617 FILLER_26_15
*618 FILLER_26_153
*619 FILLER_26_165
*620 FILLER_26_177
*621 FILLER_26_189
*622 FILLER_26_195
*623 FILLER_26_197
*624 FILLER_26_209
*625 FILLER_26_221
*626 FILLER_26_233
*627 FILLER_26_245
*628 FILLER_26_251
*629 FILLER_26_253
*630 FILLER_26_265
*631 FILLER_26_27
*632 FILLER_26_277
*633 FILLER_26_289
*634 FILLER_26_29
*635 FILLER_26_297
*636 FILLER_26_3
*637 FILLER_26_41
*638 FILLER_26_53
*639 FILLER_26_65
*640 FILLER_26_77
*641 FILLER_26_83
*642 FILLER_26_85
*643 FILLER_26_97
*644 FILLER_27_105
*645 FILLER_27_111
*646 FILLER_27_113
*647 FILLER_27_125
*648 FILLER_27_137
*649 FILLER_27_149
*650 FILLER_27_15
*651 FILLER_27_161
*652 FILLER_27_167
*653 FILLER_27_169
*654 FILLER_27_181
*655 FILLER_27_193
*656 FILLER_27_205
*657 FILLER_27_217
*658 FILLER_27_223
*659 FILLER_27_225
*660 FILLER_27_237
*661 FILLER_27_249
*662 FILLER_27_261
*663 FILLER_27_27
*664 FILLER_27_273
*665 FILLER_27_279
*666 FILLER_27_281
*667 FILLER_27_293
*668 FILLER_27_3
*669 FILLER_27_39
*670 FILLER_27_51
*671 FILLER_27_55
*672 FILLER_27_57
*673 FILLER_27_69
*674 FILLER_27_81
*675 FILLER_27_93
*676 FILLER_28_109
*677 FILLER_28_121
*678 FILLER_28_133
*679 FILLER_28_139
*680 FILLER_28_141
*681 FILLER_28_153
*682 FILLER_28_165
*683 FILLER_28_177
*684 FILLER_28_18
*685 FILLER_28_189
*686 FILLER_28_195
*687 FILLER_28_197
*688 FILLER_28_209
*689 FILLER_28_221
*690 FILLER_28_233
*691 FILLER_28_245
*692 FILLER_28_251
*693 FILLER_28_253
*694 FILLER_28_26
*695 FILLER_28_265
*696 FILLER_28_277
*697 FILLER_28_289
*698 FILLER_28_29
*699 FILLER_28_297
*700 FILLER_28_3
*701 FILLER_28_41
*702 FILLER_28_53
*703 FILLER_28_65
*704 FILLER_28_77
*705 FILLER_28_83
*706 FILLER_28_85
*707 FILLER_28_97
*708 FILLER_29_105
*709 FILLER_29_111
*710 FILLER_29_113
*711 FILLER_29_125
*712 FILLER_29_137
*713 FILLER_29_149
*714 FILLER_29_161
*715 FILLER_29_167
*716 FILLER_29_169
*717 FILLER_29_181
*718 FILLER_29_193
*719 FILLER_29_205
*720 FILLER_29_217
*721 FILLER_29_223
*722 FILLER_29_225
*723 FILLER_29_237
*724 FILLER_29_249
*725 FILLER_29_261
*726 FILLER_29_27
*727 FILLER_29_273
*728 FILLER_29_279
*729 FILLER_29_281
*730 FILLER_29_293
*731 FILLER_29_3
*732 FILLER_29_39
*733 FILLER_29_51
*734 FILLER_29_55
*735 FILLER_29_57
*736 FILLER_29_69
*737 FILLER_29_81
*738 FILLER_29_93
*739 FILLER_2_109
*740 FILLER_2_121
*741 FILLER_2_133
*742 FILLER_2_139
*743 FILLER_2_141
*744 FILLER_2_15
*745 FILLER_2_153
*746 FILLER_2_165
*747 FILLER_2_177
*748 FILLER_2_189
*749 FILLER_2_195
*750 FILLER_2_197
*751 FILLER_2_209
*752 FILLER_2_221
*753 FILLER_2_233
*754 FILLER_2_245
*755 FILLER_2_251
*756 FILLER_2_253
*757 FILLER_2_265
*758 FILLER_2_27
*759 FILLER_2_277
*760 FILLER_2_289
*761 FILLER_2_29
*762 FILLER_2_297
*763 FILLER_2_3
*764 FILLER_2_41
*765 FILLER_2_53
*766 FILLER_2_65
*767 FILLER_2_77
*768 FILLER_2_83
*769 FILLER_2_85
*770 FILLER_2_97
*771 FILLER_30_109
*772 FILLER_30_121
*773 FILLER_30_133
*774 FILLER_30_139
*775 FILLER_30_141
*776 FILLER_30_153
*777 FILLER_30_165
*778 FILLER_30_177
*779 FILLER_30_189
*780 FILLER_30_195
*781 FILLER_30_197
*782 FILLER_30_209
*783 FILLER_30_221
*784 FILLER_30_233
*785 FILLER_30_245
*786 FILLER_30_25
*787 FILLER_30_251
*788 FILLER_30_253
*789 FILLER_30_265
*790 FILLER_30_277
*791 FILLER_30_289
*792 FILLER_30_29
*793 FILLER_30_297
*794 FILLER_30_3
*795 FILLER_30_41
*796 FILLER_30_53
*797 FILLER_30_65
*798 FILLER_30_77
*799 FILLER_30_83
*800 FILLER_30_85
*801 FILLER_30_97
*802 FILLER_31_105
*803 FILLER_31_111
*804 FILLER_31_113
*805 FILLER_31_125
*806 FILLER_31_137
*807 FILLER_31_149
*808 FILLER_31_161
*809 FILLER_31_167
*810 FILLER_31_169
*811 FILLER_31_181
*812 FILLER_31_193
*813 FILLER_31_205
*814 FILLER_31_217
*815 FILLER_31_223
*816 FILLER_31_225
*817 FILLER_31_237
*818 FILLER_31_249
*819 FILLER_31_25
*820 FILLER_31_261
*821 FILLER_31_273
*822 FILLER_31_279
*823 FILLER_31_281
*824 FILLER_31_293
*825 FILLER_31_3
*826 FILLER_31_37
*827 FILLER_31_49
*828 FILLER_31_55
*829 FILLER_31_57
*830 FILLER_31_69
*831 FILLER_31_81
*832 FILLER_31_93
*833 FILLER_32_109
*834 FILLER_32_121
*835 FILLER_32_133
*836 FILLER_32_139
*837 FILLER_32_141
*838 FILLER_32_153
*839 FILLER_32_165
*840 FILLER_32_177
*841 FILLER_32_189
*842 FILLER_32_195
*843 FILLER_32_197
*844 FILLER_32_209
*845 FILLER_32_21
*846 FILLER_32_221
*847 FILLER_32_233
*848 FILLER_32_245
*849 FILLER_32_251
*850 FILLER_32_253
*851 FILLER_32_265
*852 FILLER_32_27
*853 FILLER_32_277
*854 FILLER_32_289
*855 FILLER_32_29
*856 FILLER_32_297
*857 FILLER_32_3
*858 FILLER_32_41
*859 FILLER_32_53
*860 FILLER_32_65
*861 FILLER_32_77
*862 FILLER_32_83
*863 FILLER_32_85
*864 FILLER_32_9
*865 FILLER_32_97
*866 FILLER_33_105
*867 FILLER_33_111
*868 FILLER_33_113
*869 FILLER_33_12
*870 FILLER_33_125
*871 FILLER_33_137
*872 FILLER_33_149
*873 FILLER_33_161
*874 FILLER_33_167
*875 FILLER_33_169
*876 FILLER_33_181
*877 FILLER_33_193
*878 FILLER_33_205
*879 FILLER_33_217
*880 FILLER_33_223
*881 FILLER_33_225
*882 FILLER_33_237
*883 FILLER_33_24
*884 FILLER_33_249
*885 FILLER_33_261
*886 FILLER_33_273
*887 FILLER_33_279
*888 FILLER_33_281
*889 FILLER_33_293
*890 FILLER_33_3
*891 FILLER_33_36
*892 FILLER_33_48
*893 FILLER_33_57
*894 FILLER_33_69
*895 FILLER_33_81
*896 FILLER_33_93
*897 FILLER_34_109
*898 FILLER_34_121
*899 FILLER_34_133
*900 FILLER_34_139
*901 FILLER_34_141
*902 FILLER_34_15
*903 FILLER_34_153
*904 FILLER_34_165
*905 FILLER_34_177
*906 FILLER_34_189
*907 FILLER_34_195
*908 FILLER_34_197
*909 FILLER_34_209
*910 FILLER_34_221
*911 FILLER_34_233
*912 FILLER_34_245
*913 FILLER_34_251
*914 FILLER_34_253
*915 FILLER_34_265
*916 FILLER_34_27
*917 FILLER_34_277
*918 FILLER_34_289
*919 FILLER_34_29
*920 FILLER_34_297
*921 FILLER_34_3
*922 FILLER_34_41
*923 FILLER_34_53
*924 FILLER_34_65
*925 FILLER_34_77
*926 FILLER_34_83
*927 FILLER_34_85
*928 FILLER_34_97
*929 FILLER_35_105
*930 FILLER_35_111
*931 FILLER_35_113
*932 FILLER_35_125
*933 FILLER_35_137
*934 FILLER_35_149
*935 FILLER_35_161
*936 FILLER_35_167
*937 FILLER_35_169
*938 FILLER_35_18
*939 FILLER_35_181
*940 FILLER_35_193
*941 FILLER_35_205
*942 FILLER_35_217
*943 FILLER_35_223
*944 FILLER_35_225
*945 FILLER_35_237
*946 FILLER_35_249
*947 FILLER_35_261
*948 FILLER_35_273
*949 FILLER_35_279
*950 FILLER_35_281
*951 FILLER_35_293
*952 FILLER_35_3
*953 FILLER_35_30
*954 FILLER_35_42
*955 FILLER_35_54
*956 FILLER_35_57
*957 FILLER_35_69
*958 FILLER_35_81
*959 FILLER_35_93
*960 FILLER_36_109
*961 FILLER_36_121
*962 FILLER_36_133
*963 FILLER_36_139
*964 FILLER_36_141
*965 FILLER_36_15
*966 FILLER_36_153
*967 FILLER_36_165
*968 FILLER_36_177
*969 FILLER_36_189
*970 FILLER_36_195
*971 FILLER_36_197
*972 FILLER_36_209
*973 FILLER_36_221
*974 FILLER_36_233
*975 FILLER_36_245
*976 FILLER_36_251
*977 FILLER_36_253
*978 FILLER_36_265
*979 FILLER_36_27
*980 FILLER_36_277
*981 FILLER_36_289
*982 FILLER_36_29
*983 FILLER_36_297
*984 FILLER_36_3
*985 FILLER_36_41
*986 FILLER_36_53
*987 FILLER_36_65
*988 FILLER_36_77
*989 FILLER_36_83
*990 FILLER_36_85
*991 FILLER_36_97
*992 FILLER_37_105
*993 FILLER_37_111
*994 FILLER_37_113
*995 FILLER_37_125
*996 FILLER_37_13
*997 FILLER_37_137
*998 FILLER_37_149
*999 FILLER_37_161
*1000 FILLER_37_167
*1001 FILLER_37_169
*1002 FILLER_37_181
*1003 FILLER_37_193
*1004 FILLER_37_205
*1005 FILLER_37_217
*1006 FILLER_37_223
*1007 FILLER_37_225
*1008 FILLER_37_237
*1009 FILLER_37_249
*1010 FILLER_37_261
*1011 FILLER_37_273
*1012 FILLER_37_279
*1013 FILLER_37_281
*1014 FILLER_37_293
*1015 FILLER_37_3
*1016 FILLER_37_34
*1017 FILLER_37_46
*1018 FILLER_37_54
*1019 FILLER_37_57
*1020 FILLER_37_69
*1021 FILLER_37_81
*1022 FILLER_37_9
*1023 FILLER_37_93
*1024 FILLER_38_109
*1025 FILLER_38_121
*1026 FILLER_38_133
*1027 FILLER_38_139
*1028 FILLER_38_141
*1029 FILLER_38_153
*1030 FILLER_38_165
*1031 FILLER_38_177
*1032 FILLER_38_18
*1033 FILLER_38_189
*1034 FILLER_38_195
*1035 FILLER_38_197
*1036 FILLER_38_209
*1037 FILLER_38_221
*1038 FILLER_38_233
*1039 FILLER_38_245
*1040 FILLER_38_251
*1041 FILLER_38_253
*1042 FILLER_38_26
*1043 FILLER_38_265
*1044 FILLER_38_277
*1045 FILLER_38_289
*1046 FILLER_38_29
*1047 FILLER_38_297
*1048 FILLER_38_3
*1049 FILLER_38_41
*1050 FILLER_38_53
*1051 FILLER_38_65
*1052 FILLER_38_77
*1053 FILLER_38_83
*1054 FILLER_38_85
*1055 FILLER_38_97
*1056 FILLER_39_105
*1057 FILLER_39_11
*1058 FILLER_39_111
*1059 FILLER_39_113
*1060 FILLER_39_125
*1061 FILLER_39_137
*1062 FILLER_39_149
*1063 FILLER_39_161
*1064 FILLER_39_167
*1065 FILLER_39_169
*1066 FILLER_39_181
*1067 FILLER_39_193
*1068 FILLER_39_205
*1069 FILLER_39_217
*1070 FILLER_39_223
*1071 FILLER_39_225
*1072 FILLER_39_237
*1073 FILLER_39_249
*1074 FILLER_39_261
*1075 FILLER_39_273
*1076 FILLER_39_279
*1077 FILLER_39_281
*1078 FILLER_39_293
*1079 FILLER_39_3
*1080 FILLER_39_32
*1081 FILLER_39_44
*1082 FILLER_39_57
*1083 FILLER_39_69
*1084 FILLER_39_81
*1085 FILLER_39_93
*1086 FILLER_3_105
*1087 FILLER_3_111
*1088 FILLER_3_113
*1089 FILLER_3_125
*1090 FILLER_3_137
*1091 FILLER_3_149
*1092 FILLER_3_15
*1093 FILLER_3_161
*1094 FILLER_3_167
*1095 FILLER_3_169
*1096 FILLER_3_181
*1097 FILLER_3_193
*1098 FILLER_3_205
*1099 FILLER_3_217
*1100 FILLER_3_223
*1101 FILLER_3_225
*1102 FILLER_3_237
*1103 FILLER_3_249
*1104 FILLER_3_261
*1105 FILLER_3_27
*1106 FILLER_3_273
*1107 FILLER_3_279
*1108 FILLER_3_281
*1109 FILLER_3_293
*1110 FILLER_3_3
*1111 FILLER_3_39
*1112 FILLER_3_51
*1113 FILLER_3_55
*1114 FILLER_3_57
*1115 FILLER_3_69
*1116 FILLER_3_81
*1117 FILLER_3_93
*1118 FILLER_40_109
*1119 FILLER_40_121
*1120 FILLER_40_133
*1121 FILLER_40_139
*1122 FILLER_40_141
*1123 FILLER_40_153
*1124 FILLER_40_165
*1125 FILLER_40_177
*1126 FILLER_40_189
*1127 FILLER_40_195
*1128 FILLER_40_197
*1129 FILLER_40_209
*1130 FILLER_40_221
*1131 FILLER_40_233
*1132 FILLER_40_245
*1133 FILLER_40_25
*1134 FILLER_40_251
*1135 FILLER_40_253
*1136 FILLER_40_265
*1137 FILLER_40_277
*1138 FILLER_40_289
*1139 FILLER_40_29
*1140 FILLER_40_297
*1141 FILLER_40_3
*1142 FILLER_40_41
*1143 FILLER_40_53
*1144 FILLER_40_65
*1145 FILLER_40_77
*1146 FILLER_40_83
*1147 FILLER_40_85
*1148 FILLER_40_97
*1149 FILLER_41_105
*1150 FILLER_41_111
*1151 FILLER_41_113
*1152 FILLER_41_125
*1153 FILLER_41_137
*1154 FILLER_41_149
*1155 FILLER_41_161
*1156 FILLER_41_167
*1157 FILLER_41_169
*1158 FILLER_41_181
*1159 FILLER_41_193
*1160 FILLER_41_205
*1161 FILLER_41_217
*1162 FILLER_41_223
*1163 FILLER_41_225
*1164 FILLER_41_237
*1165 FILLER_41_249
*1166 FILLER_41_25
*1167 FILLER_41_261
*1168 FILLER_41_273
*1169 FILLER_41_279
*1170 FILLER_41_281
*1171 FILLER_41_293
*1172 FILLER_41_3
*1173 FILLER_41_37
*1174 FILLER_41_49
*1175 FILLER_41_55
*1176 FILLER_41_57
*1177 FILLER_41_69
*1178 FILLER_41_81
*1179 FILLER_41_93
*1180 FILLER_42_109
*1181 FILLER_42_121
*1182 FILLER_42_133
*1183 FILLER_42_139
*1184 FILLER_42_141
*1185 FILLER_42_15
*1186 FILLER_42_153
*1187 FILLER_42_165
*1188 FILLER_42_177
*1189 FILLER_42_189
*1190 FILLER_42_195
*1191 FILLER_42_197
*1192 FILLER_42_209
*1193 FILLER_42_221
*1194 FILLER_42_233
*1195 FILLER_42_245
*1196 FILLER_42_251
*1197 FILLER_42_253
*1198 FILLER_42_265
*1199 FILLER_42_27
*1200 FILLER_42_277
*1201 FILLER_42_289
*1202 FILLER_42_29
*1203 FILLER_42_297
*1204 FILLER_42_3
*1205 FILLER_42_41
*1206 FILLER_42_53
*1207 FILLER_42_65
*1208 FILLER_42_77
*1209 FILLER_42_83
*1210 FILLER_42_85
*1211 FILLER_42_97
*1212 FILLER_43_105
*1213 FILLER_43_111
*1214 FILLER_43_113
*1215 FILLER_43_125
*1216 FILLER_43_137
*1217 FILLER_43_149
*1218 FILLER_43_15
*1219 FILLER_43_161
*1220 FILLER_43_167
*1221 FILLER_43_169
*1222 FILLER_43_181
*1223 FILLER_43_193
*1224 FILLER_43_205
*1225 FILLER_43_217
*1226 FILLER_43_223
*1227 FILLER_43_225
*1228 FILLER_43_237
*1229 FILLER_43_249
*1230 FILLER_43_261
*1231 FILLER_43_27
*1232 FILLER_43_273
*1233 FILLER_43_279
*1234 FILLER_43_281
*1235 FILLER_43_293
*1236 FILLER_43_3
*1237 FILLER_43_39
*1238 FILLER_43_51
*1239 FILLER_43_55
*1240 FILLER_43_57
*1241 FILLER_43_69
*1242 FILLER_43_81
*1243 FILLER_43_93
*1244 FILLER_44_109
*1245 FILLER_44_121
*1246 FILLER_44_133
*1247 FILLER_44_139
*1248 FILLER_44_141
*1249 FILLER_44_15
*1250 FILLER_44_153
*1251 FILLER_44_165
*1252 FILLER_44_177
*1253 FILLER_44_189
*1254 FILLER_44_195
*1255 FILLER_44_197
*1256 FILLER_44_209
*1257 FILLER_44_221
*1258 FILLER_44_233
*1259 FILLER_44_245
*1260 FILLER_44_251
*1261 FILLER_44_253
*1262 FILLER_44_265
*1263 FILLER_44_27
*1264 FILLER_44_277
*1265 FILLER_44_289
*1266 FILLER_44_29
*1267 FILLER_44_297
*1268 FILLER_44_3
*1269 FILLER_44_41
*1270 FILLER_44_53
*1271 FILLER_44_65
*1272 FILLER_44_77
*1273 FILLER_44_83
*1274 FILLER_44_85
*1275 FILLER_44_97
*1276 FILLER_45_105
*1277 FILLER_45_111
*1278 FILLER_45_113
*1279 FILLER_45_125
*1280 FILLER_45_137
*1281 FILLER_45_149
*1282 FILLER_45_15
*1283 FILLER_45_161
*1284 FILLER_45_167
*1285 FILLER_45_169
*1286 FILLER_45_181
*1287 FILLER_45_193
*1288 FILLER_45_205
*1289 FILLER_45_217
*1290 FILLER_45_223
*1291 FILLER_45_225
*1292 FILLER_45_237
*1293 FILLER_45_249
*1294 FILLER_45_261
*1295 FILLER_45_27
*1296 FILLER_45_273
*1297 FILLER_45_279
*1298 FILLER_45_281
*1299 FILLER_45_293
*1300 FILLER_45_3
*1301 FILLER_45_39
*1302 FILLER_45_51
*1303 FILLER_45_55
*1304 FILLER_45_57
*1305 FILLER_45_69
*1306 FILLER_45_81
*1307 FILLER_45_93
*1308 FILLER_46_109
*1309 FILLER_46_121
*1310 FILLER_46_133
*1311 FILLER_46_139
*1312 FILLER_46_141
*1313 FILLER_46_15
*1314 FILLER_46_153
*1315 FILLER_46_165
*1316 FILLER_46_177
*1317 FILLER_46_189
*1318 FILLER_46_195
*1319 FILLER_46_197
*1320 FILLER_46_209
*1321 FILLER_46_221
*1322 FILLER_46_233
*1323 FILLER_46_245
*1324 FILLER_46_251
*1325 FILLER_46_253
*1326 FILLER_46_265
*1327 FILLER_46_27
*1328 FILLER_46_277
*1329 FILLER_46_289
*1330 FILLER_46_29
*1331 FILLER_46_297
*1332 FILLER_46_3
*1333 FILLER_46_41
*1334 FILLER_46_53
*1335 FILLER_46_65
*1336 FILLER_46_77
*1337 FILLER_46_83
*1338 FILLER_46_85
*1339 FILLER_46_97
*1340 FILLER_47_105
*1341 FILLER_47_111
*1342 FILLER_47_113
*1343 FILLER_47_125
*1344 FILLER_47_137
*1345 FILLER_47_149
*1346 FILLER_47_15
*1347 FILLER_47_161
*1348 FILLER_47_167
*1349 FILLER_47_169
*1350 FILLER_47_181
*1351 FILLER_47_193
*1352 FILLER_47_205
*1353 FILLER_47_217
*1354 FILLER_47_223
*1355 FILLER_47_225
*1356 FILLER_47_237
*1357 FILLER_47_249
*1358 FILLER_47_261
*1359 FILLER_47_27
*1360 FILLER_47_273
*1361 FILLER_47_279
*1362 FILLER_47_281
*1363 FILLER_47_293
*1364 FILLER_47_3
*1365 FILLER_47_39
*1366 FILLER_47_51
*1367 FILLER_47_55
*1368 FILLER_47_57
*1369 FILLER_47_69
*1370 FILLER_47_81
*1371 FILLER_47_93
*1372 FILLER_48_109
*1373 FILLER_48_121
*1374 FILLER_48_133
*1375 FILLER_48_139
*1376 FILLER_48_141
*1377 FILLER_48_15
*1378 FILLER_48_153
*1379 FILLER_48_165
*1380 FILLER_48_177
*1381 FILLER_48_189
*1382 FILLER_48_195
*1383 FILLER_48_197
*1384 FILLER_48_209
*1385 FILLER_48_221
*1386 FILLER_48_233
*1387 FILLER_48_245
*1388 FILLER_48_251
*1389 FILLER_48_253
*1390 FILLER_48_265
*1391 FILLER_48_27
*1392 FILLER_48_277
*1393 FILLER_48_289
*1394 FILLER_48_29
*1395 FILLER_48_297
*1396 FILLER_48_3
*1397 FILLER_48_41
*1398 FILLER_48_53
*1399 FILLER_48_65
*1400 FILLER_48_77
*1401 FILLER_48_83
*1402 FILLER_48_85
*1403 FILLER_48_97
*1404 FILLER_49_105
*1405 FILLER_49_111
*1406 FILLER_49_113
*1407 FILLER_49_125
*1408 FILLER_49_137
*1409 FILLER_49_149
*1410 FILLER_49_15
*1411 FILLER_49_161
*1412 FILLER_49_167
*1413 FILLER_49_169
*1414 FILLER_49_181
*1415 FILLER_49_193
*1416 FILLER_49_205
*1417 FILLER_49_217
*1418 FILLER_49_223
*1419 FILLER_49_225
*1420 FILLER_49_237
*1421 FILLER_49_249
*1422 FILLER_49_261
*1423 FILLER_49_27
*1424 FILLER_49_273
*1425 FILLER_49_279
*1426 FILLER_49_281
*1427 FILLER_49_293
*1428 FILLER_49_3
*1429 FILLER_49_39
*1430 FILLER_49_51
*1431 FILLER_49_55
*1432 FILLER_49_57
*1433 FILLER_49_69
*1434 FILLER_49_81
*1435 FILLER_49_93
*1436 FILLER_4_109
*1437 FILLER_4_121
*1438 FILLER_4_133
*1439 FILLER_4_139
*1440 FILLER_4_141
*1441 FILLER_4_15
*1442 FILLER_4_153
*1443 FILLER_4_165
*1444 FILLER_4_177
*1445 FILLER_4_189
*1446 FILLER_4_195
*1447 FILLER_4_197
*1448 FILLER_4_209
*1449 FILLER_4_221
*1450 FILLER_4_233
*1451 FILLER_4_245
*1452 FILLER_4_251
*1453 FILLER_4_253
*1454 FILLER_4_265
*1455 FILLER_4_27
*1456 FILLER_4_277
*1457 FILLER_4_289
*1458 FILLER_4_29
*1459 FILLER_4_297
*1460 FILLER_4_3
*1461 FILLER_4_41
*1462 FILLER_4_53
*1463 FILLER_4_65
*1464 FILLER_4_77
*1465 FILLER_4_83
*1466 FILLER_4_85
*1467 FILLER_4_97
*1468 FILLER_50_109
*1469 FILLER_50_121
*1470 FILLER_50_133
*1471 FILLER_50_139
*1472 FILLER_50_141
*1473 FILLER_50_15
*1474 FILLER_50_153
*1475 FILLER_50_165
*1476 FILLER_50_177
*1477 FILLER_50_189
*1478 FILLER_50_195
*1479 FILLER_50_197
*1480 FILLER_50_209
*1481 FILLER_50_221
*1482 FILLER_50_233
*1483 FILLER_50_245
*1484 FILLER_50_251
*1485 FILLER_50_253
*1486 FILLER_50_265
*1487 FILLER_50_27
*1488 FILLER_50_277
*1489 FILLER_50_289
*1490 FILLER_50_29
*1491 FILLER_50_297
*1492 FILLER_50_3
*1493 FILLER_50_41
*1494 FILLER_50_53
*1495 FILLER_50_65
*1496 FILLER_50_77
*1497 FILLER_50_83
*1498 FILLER_50_85
*1499 FILLER_50_97
*1500 FILLER_51_105
*1501 FILLER_51_111
*1502 FILLER_51_113
*1503 FILLER_51_125
*1504 FILLER_51_137
*1505 FILLER_51_149
*1506 FILLER_51_15
*1507 FILLER_51_161
*1508 FILLER_51_167
*1509 FILLER_51_169
*1510 FILLER_51_181
*1511 FILLER_51_193
*1512 FILLER_51_205
*1513 FILLER_51_217
*1514 FILLER_51_223
*1515 FILLER_51_225
*1516 FILLER_51_237
*1517 FILLER_51_249
*1518 FILLER_51_261
*1519 FILLER_51_27
*1520 FILLER_51_273
*1521 FILLER_51_279
*1522 FILLER_51_281
*1523 FILLER_51_293
*1524 FILLER_51_3
*1525 FILLER_51_39
*1526 FILLER_51_51
*1527 FILLER_51_55
*1528 FILLER_51_57
*1529 FILLER_51_69
*1530 FILLER_51_81
*1531 FILLER_51_93
*1532 FILLER_52_109
*1533 FILLER_52_121
*1534 FILLER_52_133
*1535 FILLER_52_139
*1536 FILLER_52_141
*1537 FILLER_52_15
*1538 FILLER_52_153
*1539 FILLER_52_165
*1540 FILLER_52_177
*1541 FILLER_52_189
*1542 FILLER_52_195
*1543 FILLER_52_197
*1544 FILLER_52_209
*1545 FILLER_52_221
*1546 FILLER_52_233
*1547 FILLER_52_245
*1548 FILLER_52_251
*1549 FILLER_52_253
*1550 FILLER_52_265
*1551 FILLER_52_27
*1552 FILLER_52_277
*1553 FILLER_52_289
*1554 FILLER_52_29
*1555 FILLER_52_297
*1556 FILLER_52_3
*1557 FILLER_52_41
*1558 FILLER_52_53
*1559 FILLER_52_65
*1560 FILLER_52_77
*1561 FILLER_52_83
*1562 FILLER_52_85
*1563 FILLER_52_97
*1564 FILLER_53_105
*1565 FILLER_53_111
*1566 FILLER_53_113
*1567 FILLER_53_125
*1568 FILLER_53_137
*1569 FILLER_53_149
*1570 FILLER_53_15
*1571 FILLER_53_161
*1572 FILLER_53_167
*1573 FILLER_53_169
*1574 FILLER_53_181
*1575 FILLER_53_193
*1576 FILLER_53_205
*1577 FILLER_53_217
*1578 FILLER_53_223
*1579 FILLER_53_225
*1580 FILLER_53_237
*1581 FILLER_53_249
*1582 FILLER_53_261
*1583 FILLER_53_27
*1584 FILLER_53_273
*1585 FILLER_53_279