*SPEF "ieee 1481-1999"
*DESIGN "zymason_tinytop"
*DATE "11:11:11 Fri 11 11, 1111"
*VENDOR "OpenRCX"
*PROGRAM "Parallel Extraction"
*VERSION "1.0"
*DESIGN_FLOW "NAME_SCOPE LOCAL" "PIN_CAP NONE"
*DIVIDER /
*DELIMITER :
*BUS_DELIMITER []
*T_UNIT 1 NS
*C_UNIT 1 PF
*R_UNIT 1 OHM
*L_UNIT 1 HENRY

*NAME_MAP
*1 io_in[0]
*2 io_in[1]
*3 io_in[2]
*4 io_in[3]
*5 io_in[4]
*6 io_in[5]
*7 io_in[6]
*8 io_in[7]
*9 io_out[0]
*10 io_out[1]
*11 io_out[2]
*12 io_out[3]
*13 io_out[4]
*14 io_out[5]
*15 io_out[6]
*16 io_out[7]
*19 _0000_
*20 _0001_
*21 _0002_
*22 _0003_
*23 _0004_
*24 _0005_
*25 _0006_
*26 _0007_
*27 _0008_
*28 _0009_
*29 _0010_
*30 _0011_
*31 _0012_
*32 _0013_
*33 _0014_
*34 _0015_
*35 _0016_
*36 _0017_
*37 _0018_
*38 _0019_
*39 _0020_
*40 _0021_
*41 _0022_
*42 _0023_
*43 _0024_
*44 _0025_
*45 _0026_
*46 _0027_
*47 _0028_
*48 _0029_
*49 _0030_
*50 _0031_
*51 _0032_
*52 _0033_
*53 _0034_
*54 _0035_
*55 _0036_
*56 _0037_
*57 _0038_
*58 _0039_
*59 _0040_
*60 _0041_
*61 _0042_
*62 _0043_
*63 _0044_
*64 _0045_
*65 _0046_
*66 _0047_
*67 _0048_
*68 _0049_
*69 _0050_
*70 _0051_
*71 _0052_
*72 _0053_
*73 _0054_
*74 _0055_
*75 _0056_
*76 _0057_
*77 _0058_
*78 _0059_
*79 _0060_
*80 _0061_
*81 _0062_
*82 _0063_
*83 _0064_
*84 _0065_
*85 _0066_
*86 _0067_
*87 _0068_
*88 _0069_
*89 _0070_
*90 _0071_
*91 _0072_
*92 _0073_
*93 _0074_
*94 _0075_
*95 _0076_
*96 _0077_
*97 _0078_
*98 _0079_
*99 _0080_
*100 _0081_
*101 _0082_
*102 _0083_
*103 _0084_
*104 _0085_
*105 _0086_
*106 _0087_
*107 _0088_
*108 _0089_
*109 _0090_
*110 _0091_
*111 _0092_
*112 _0093_
*113 _0094_
*114 _0095_
*115 _0096_
*116 _0097_
*117 _0098_
*118 _0099_
*119 _0100_
*120 _0101_
*121 _0102_
*122 _0103_
*123 _0104_
*124 _0105_
*125 _0106_
*126 _0107_
*127 _0108_
*128 _0109_
*129 _0110_
*130 _0111_
*131 _0112_
*132 _0113_
*133 _0114_
*134 _0115_
*135 _0116_
*136 _0117_
*137 _0118_
*138 _0119_
*139 _0120_
*140 _0121_
*141 _0122_
*142 _0123_
*143 _0124_
*144 _0125_
*145 _0126_
*146 _0127_
*147 _0128_
*148 _0129_
*149 _0130_
*150 _0131_
*151 _0132_
*152 _0133_
*153 _0134_
*154 _0135_
*155 _0136_
*156 _0137_
*157 _0138_
*158 _0139_
*159 _0140_
*160 _0141_
*161 _0142_
*162 _0143_
*163 _0144_
*164 _0145_
*165 _0146_
*166 _0147_
*167 _0148_
*168 _0149_
*169 _0150_
*170 _0151_
*171 _0152_
*172 _0153_
*173 _0154_
*174 _0155_
*175 _0156_
*176 _0157_
*177 _0158_
*178 _0159_
*179 _0160_
*180 _0161_
*181 _0162_
*182 _0163_
*183 _0164_
*184 _0165_
*185 _0166_
*186 _0167_
*187 _0168_
*188 _0169_
*189 _0170_
*190 _0171_
*191 _0172_
*192 _0173_
*193 _0174_
*194 _0175_
*195 _0176_
*196 _0177_
*197 _0178_
*198 _0179_
*199 _0180_
*200 _0181_
*201 _0182_
*202 _0183_
*203 _0184_
*204 _0185_
*205 _0186_
*206 _0187_
*207 _0188_
*208 _0189_
*209 _0190_
*210 _0191_
*211 _0192_
*212 _0193_
*213 _0194_
*214 _0195_
*215 _0196_
*216 _0197_
*217 _0198_
*218 _0199_
*219 _0200_
*220 _0201_
*221 _0202_
*222 _0203_
*223 _0204_
*224 _0205_
*225 _0206_
*226 _0207_
*227 _0208_
*228 _0209_
*229 _0210_
*230 _0211_
*231 _0212_
*232 _0213_
*233 _0214_
*234 _0215_
*235 _0216_
*236 _0217_
*237 _0218_
*238 _0219_
*239 _0220_
*240 _0221_
*241 _0222_
*242 _0223_
*243 _0224_
*244 _0225_
*245 _0226_
*246 _0227_
*247 _0228_
*248 _0229_
*249 _0230_
*250 _0231_
*251 _0232_
*252 _0233_
*253 _0234_
*254 _0235_
*255 _0236_
*256 _0237_
*257 _0238_
*258 _0239_
*259 _0240_
*260 _0241_
*261 _0242_
*262 _0243_
*263 _0244_
*264 _0245_
*265 _0246_
*266 _0247_
*267 _0248_
*268 _0249_
*269 _0250_
*270 _0251_
*271 _0252_
*272 _0253_
*273 _0254_
*274 _0255_
*275 _0256_
*276 _0257_
*277 _0258_
*278 _0259_
*279 _0260_
*280 _0261_
*281 _0262_
*282 _0263_
*283 _0264_
*284 _0265_
*285 _0266_
*286 _0267_
*287 _0268_
*288 _0269_
*289 _0270_
*290 _0271_
*291 _0272_
*292 _0273_
*293 _0274_
*294 _0275_
*295 _0276_
*296 _0277_
*297 _0278_
*298 _0279_
*299 _0280_
*300 _0281_
*301 _0282_
*302 _0283_
*303 _0284_
*304 _0285_
*305 _0286_
*306 _0287_
*307 _0288_
*308 _0289_
*309 _0290_
*310 _0291_
*311 _0292_
*312 _0293_
*313 _0294_
*314 _0295_
*315 _0296_
*316 _0297_
*317 _0298_
*318 _0299_
*319 _0300_
*320 _0301_
*321 _0302_
*322 _0303_
*323 _0304_
*324 _0305_
*325 _0306_
*326 _0307_
*327 _0308_
*328 _0309_
*329 _0310_
*330 _0311_
*331 _0312_
*332 _0313_
*333 _0314_
*334 _0315_
*335 _0316_
*336 _0317_
*337 _0318_
*338 _0319_
*339 _0320_
*340 _0321_
*341 _0322_
*342 _0323_
*343 _0324_
*344 _0325_
*345 _0326_
*346 _0327_
*347 _0328_
*348 _0329_
*349 _0330_
*350 _0331_
*351 _0332_
*352 _0333_
*353 _0334_
*354 _0335_
*355 _0336_
*356 _0337_
*357 _0338_
*358 _0339_
*359 _0340_
*360 _0341_
*361 _0342_
*362 _0343_
*363 _0344_
*364 _0345_
*365 _0346_
*366 _0347_
*367 _0348_
*368 _0349_
*369 _0350_
*370 _0351_
*371 _0352_
*372 _0353_
*373 _0354_
*374 _0355_
*375 _0356_
*376 _0357_
*377 _0358_
*378 _0359_
*379 _0360_
*380 _0361_
*381 _0362_
*382 _0363_
*383 _0364_
*384 _0365_
*385 _0366_
*386 _0367_
*387 _0368_
*388 _0369_
*389 _0370_
*390 _0371_
*391 _0372_
*392 _0373_
*393 _0374_
*394 _0375_
*395 _0376_
*396 _0377_
*397 _0378_
*398 _0379_
*399 _0380_
*400 _0381_
*401 _0382_
*402 _0383_
*403 _0384_
*404 _0385_
*405 _0386_
*406 _0387_
*407 _0388_
*408 _0389_
*409 _0390_
*410 _0391_
*411 _0392_
*412 _0393_
*413 _0394_
*414 _0395_
*415 _0396_
*416 _0397_
*417 _0398_
*418 _0399_
*419 _0400_
*420 _0401_
*421 _0402_
*422 _0403_
*423 _0404_
*424 _0405_
*425 _0406_
*426 _0407_
*427 _0408_
*428 _0409_
*429 _0410_
*430 _0411_
*431 _0412_
*432 _0413_
*433 _0414_
*434 _0415_
*435 _0416_
*436 _0417_
*437 _0418_
*438 _0419_
*439 _0420_
*440 _0421_
*441 _0422_
*442 _0423_
*443 _0424_
*444 _0425_
*445 _0426_
*446 _0427_
*447 _0428_
*448 _0429_
*449 _0430_
*450 _0431_
*451 _0432_
*452 _0433_
*453 _0434_
*454 _0435_
*455 _0436_
*456 _0437_
*457 _0438_
*458 _0439_
*459 _0440_
*460 _0441_
*461 _0442_
*462 _0443_
*463 _0444_
*464 _0445_
*465 _0446_
*466 _0447_
*467 _0448_
*468 _0449_
*469 _0450_
*470 _0451_
*471 _0452_
*472 _0453_
*473 _0454_
*474 _0455_
*475 _0456_
*476 _0457_
*477 _0458_
*478 _0459_
*479 _0460_
*480 _0461_
*481 _0462_
*482 _0463_
*483 _0464_
*484 _0465_
*485 _0466_
*486 _0467_
*487 _0468_
*488 _0469_
*489 _0470_
*490 _0471_
*491 _0472_
*492 _0473_
*493 _0474_
*494 _0475_
*495 _0476_
*496 _0477_
*497 _0478_
*498 _0479_
*499 _0480_
*500 _0481_
*501 _0482_
*502 _0483_
*503 _0484_
*504 _0485_
*505 _0486_
*506 _0487_
*507 _0488_
*508 clknet_0_io_in[0]
*509 clknet_3_0__leaf_io_in[0]
*510 clknet_3_1__leaf_io_in[0]
*511 clknet_3_2__leaf_io_in[0]
*512 clknet_3_3__leaf_io_in[0]
*513 clknet_3_4__leaf_io_in[0]
*514 clknet_3_5__leaf_io_in[0]
*515 clknet_3_6__leaf_io_in[0]
*516 clknet_3_7__leaf_io_in[0]
*517 net1
*518 net2
*519 net3
*520 net4
*521 net5
*522 net6
*523 net7
*524 net8
*525 p0\.STR\[0\]\.dr\.en
*526 p0\.STR\[0\]\.dr\.val\[0\]
*527 p0\.STR\[0\]\.dr\.val\[1\]
*528 p0\.STR\[0\]\.dr\.val\[2\]
*529 p0\.STR\[0\]\.dr\.val\[3\]
*530 p0\.STR\[0\]\.dr\.val\[4\]
*531 p0\.STR\[0\]\.dr\.val\[5\]
*532 p0\.STR\[0\]\.dr\.val\[6\]
*533 p0\.STR\[10\]\.dr\.en
*534 p0\.STR\[10\]\.dr\.val\[0\]
*535 p0\.STR\[10\]\.dr\.val\[1\]
*536 p0\.STR\[10\]\.dr\.val\[2\]
*537 p0\.STR\[10\]\.dr\.val\[3\]
*538 p0\.STR\[10\]\.dr\.val\[4\]
*539 p0\.STR\[10\]\.dr\.val\[5\]
*540 p0\.STR\[10\]\.dr\.val\[6\]
*541 p0\.STR\[11\]\.dr\.en
*542 p0\.STR\[11\]\.dr\.val\[0\]
*543 p0\.STR\[11\]\.dr\.val\[1\]
*544 p0\.STR\[11\]\.dr\.val\[2\]
*545 p0\.STR\[11\]\.dr\.val\[3\]
*546 p0\.STR\[11\]\.dr\.val\[4\]
*547 p0\.STR\[11\]\.dr\.val\[5\]
*548 p0\.STR\[11\]\.dr\.val\[6\]
*549 p0\.STR\[1\]\.dr\.en
*550 p0\.STR\[1\]\.dr\.val\[0\]
*551 p0\.STR\[1\]\.dr\.val\[1\]
*552 p0\.STR\[1\]\.dr\.val\[2\]
*553 p0\.STR\[1\]\.dr\.val\[3\]
*554 p0\.STR\[1\]\.dr\.val\[4\]
*555 p0\.STR\[1\]\.dr\.val\[5\]
*556 p0\.STR\[1\]\.dr\.val\[6\]
*557 p0\.STR\[2\]\.dr\.en
*558 p0\.STR\[2\]\.dr\.val\[0\]
*559 p0\.STR\[2\]\.dr\.val\[1\]
*560 p0\.STR\[2\]\.dr\.val\[2\]
*561 p0\.STR\[2\]\.dr\.val\[3\]
*562 p0\.STR\[2\]\.dr\.val\[4\]
*563 p0\.STR\[2\]\.dr\.val\[5\]
*564 p0\.STR\[2\]\.dr\.val\[6\]
*565 p0\.STR\[3\]\.dr\.en
*566 p0\.STR\[3\]\.dr\.val\[0\]
*567 p0\.STR\[3\]\.dr\.val\[1\]
*568 p0\.STR\[3\]\.dr\.val\[2\]
*569 p0\.STR\[3\]\.dr\.val\[3\]
*570 p0\.STR\[3\]\.dr\.val\[4\]
*571 p0\.STR\[3\]\.dr\.val\[5\]
*572 p0\.STR\[3\]\.dr\.val\[6\]
*573 p0\.STR\[4\]\.dr\.en
*574 p0\.STR\[4\]\.dr\.val\[0\]
*575 p0\.STR\[4\]\.dr\.val\[1\]
*576 p0\.STR\[4\]\.dr\.val\[2\]
*577 p0\.STR\[4\]\.dr\.val\[3\]
*578 p0\.STR\[4\]\.dr\.val\[4\]
*579 p0\.STR\[4\]\.dr\.val\[5\]
*580 p0\.STR\[4\]\.dr\.val\[6\]
*581 p0\.STR\[5\]\.dr\.en
*582 p0\.STR\[5\]\.dr\.val\[0\]
*583 p0\.STR\[5\]\.dr\.val\[1\]
*584 p0\.STR\[5\]\.dr\.val\[2\]
*585 p0\.STR\[5\]\.dr\.val\[3\]
*586 p0\.STR\[5\]\.dr\.val\[4\]
*587 p0\.STR\[5\]\.dr\.val\[5\]
*588 p0\.STR\[5\]\.dr\.val\[6\]
*589 p0\.STR\[6\]\.dr\.en
*590 p0\.STR\[6\]\.dr\.val\[0\]
*591 p0\.STR\[6\]\.dr\.val\[1\]
*592 p0\.STR\[6\]\.dr\.val\[2\]
*593 p0\.STR\[6\]\.dr\.val\[3\]
*594 p0\.STR\[6\]\.dr\.val\[4\]
*595 p0\.STR\[6\]\.dr\.val\[5\]
*596 p0\.STR\[6\]\.dr\.val\[6\]
*597 p0\.STR\[7\]\.dr\.en
*598 p0\.STR\[7\]\.dr\.val\[0\]
*599 p0\.STR\[7\]\.dr\.val\[1\]
*600 p0\.STR\[7\]\.dr\.val\[2\]
*601 p0\.STR\[7\]\.dr\.val\[3\]
*602 p0\.STR\[7\]\.dr\.val\[4\]
*603 p0\.STR\[7\]\.dr\.val\[5\]
*604 p0\.STR\[7\]\.dr\.val\[6\]
*605 p0\.STR\[8\]\.dr\.en
*606 p0\.STR\[8\]\.dr\.val\[0\]
*607 p0\.STR\[8\]\.dr\.val\[1\]
*608 p0\.STR\[8\]\.dr\.val\[2\]
*609 p0\.STR\[8\]\.dr\.val\[3\]
*610 p0\.STR\[8\]\.dr\.val\[4\]
*611 p0\.STR\[8\]\.dr\.val\[5\]
*612 p0\.STR\[8\]\.dr\.val\[6\]
*613 p0\.STR\[9\]\.dr\.en
*614 p0\.STR\[9\]\.dr\.val\[0\]
*615 p0\.STR\[9\]\.dr\.val\[1\]
*616 p0\.STR\[9\]\.dr\.val\[2\]
*617 p0\.STR\[9\]\.dr\.val\[3\]
*618 p0\.STR\[9\]\.dr\.val\[4\]
*619 p0\.STR\[9\]\.dr\.val\[5\]
*620 p0\.STR\[9\]\.dr\.val\[6\]
*621 p0\.f0\.nextState\[0\]
*622 p0\.f0\.nextState\[1\]
*623 p0\.f0\.state\[0\]
*624 p0\.f0\.state\[1\]
*625 p0\.p0\.count\[0\]
*626 p0\.p0\.count\[1\]
*627 p0\.p0\.count\[2\]
*628 p0\.p0\.count\[3\]
*629 p0\.p0\.count\[4\]
*630 p0\.p0\.count\[5\]
*631 p0\.p0\.count\[6\]
*632 p0\.p0\.count\[7\]
*633 p0\.p0\.count\[8\]
*634 p0\.p0\.lowCount\[0\]
*635 p0\.p0\.lowCount\[1\]
*636 p0\.p0\.lowCount\[2\]
*637 p0\.p0\.lowCount\[3\]
*638 p0\.p0\.lowCount\[4\]
*639 ANTENNA_1
*640 ANTENNA_2
*641 FILLER_0_100
*642 FILLER_0_107
*643 FILLER_0_111
*644 FILLER_0_113
*645 FILLER_0_119
*646 FILLER_0_12
*647 FILLER_0_126
*648 FILLER_0_135
*649 FILLER_0_139
*650 FILLER_0_141
*651 FILLER_0_149
*652 FILLER_0_156
*653 FILLER_0_163
*654 FILLER_0_167
*655 FILLER_0_169
*656 FILLER_0_174
*657 FILLER_0_181
*658 FILLER_0_188
*659 FILLER_0_19
*660 FILLER_0_197
*661 FILLER_0_209
*662 FILLER_0_221
*663 FILLER_0_225
*664 FILLER_0_237
*665 FILLER_0_249
*666 FILLER_0_253
*667 FILLER_0_26
*668 FILLER_0_265
*669 FILLER_0_277
*670 FILLER_0_281
*671 FILLER_0_29
*672 FILLER_0_293
*673 FILLER_0_3
*674 FILLER_0_40
*675 FILLER_0_47
*676 FILLER_0_54
*677 FILLER_0_57
*678 FILLER_0_61
*679 FILLER_0_78
*680 FILLER_0_85
*681 FILLER_0_90
*682 FILLER_0_96
*683 FILLER_10_100
*684 FILLER_10_121
*685 FILLER_10_133
*686 FILLER_10_139
*687 FILLER_10_141
*688 FILLER_10_148
*689 FILLER_10_156
*690 FILLER_10_179
*691 FILLER_10_186
*692 FILLER_10_193
*693 FILLER_10_197
*694 FILLER_10_209
*695 FILLER_10_221
*696 FILLER_10_233
*697 FILLER_10_245
*698 FILLER_10_25
*699 FILLER_10_251
*700 FILLER_10_253
*701 FILLER_10_265
*702 FILLER_10_277
*703 FILLER_10_289
*704 FILLER_10_29
*705 FILLER_10_297
*706 FILLER_10_3
*707 FILLER_10_41
*708 FILLER_10_65
*709 FILLER_10_73
*710 FILLER_10_80
*711 FILLER_10_85
*712 FILLER_10_96
*713 FILLER_11_103
*714 FILLER_11_110
*715 FILLER_11_113
*716 FILLER_11_124
*717 FILLER_11_141
*718 FILLER_11_145
*719 FILLER_11_166
*720 FILLER_11_169
*721 FILLER_11_174
*722 FILLER_11_181
*723 FILLER_11_193
*724 FILLER_11_205
*725 FILLER_11_21
*726 FILLER_11_217
*727 FILLER_11_223
*728 FILLER_11_225
*729 FILLER_11_237
*730 FILLER_11_249
*731 FILLER_11_261
*732 FILLER_11_273
*733 FILLER_11_279
*734 FILLER_11_281
*735 FILLER_11_293
*736 FILLER_11_3
*737 FILLER_11_47
*738 FILLER_11_54
*739 FILLER_11_57
*740 FILLER_11_65
*741 FILLER_11_73
*742 FILLER_11_8
*743 FILLER_11_95
*744 FILLER_12_11
*745 FILLER_12_113
*746 FILLER_12_138
*747 FILLER_12_141
*748 FILLER_12_15
*749 FILLER_12_164
*750 FILLER_12_177
*751 FILLER_12_184
*752 FILLER_12_19
*753 FILLER_12_191
*754 FILLER_12_195
*755 FILLER_12_197
*756 FILLER_12_209
*757 FILLER_12_221
*758 FILLER_12_233
*759 FILLER_12_245
*760 FILLER_12_251
*761 FILLER_12_253
*762 FILLER_12_26
*763 FILLER_12_265
*764 FILLER_12_277
*765 FILLER_12_289
*766 FILLER_12_29
*767 FILLER_12_297
*768 FILLER_12_3
*769 FILLER_12_41
*770 FILLER_12_45
*771 FILLER_12_67
*772 FILLER_12_80
*773 FILLER_12_85
*774 FILLER_12_91
*775 FILLER_13_101
*776 FILLER_13_109
*777 FILLER_13_113
*778 FILLER_13_119
*779 FILLER_13_145
*780 FILLER_13_152
*781 FILLER_13_156
*782 FILLER_13_166
*783 FILLER_13_169
*784 FILLER_13_174
*785 FILLER_13_181
*786 FILLER_13_193
*787 FILLER_13_205
*788 FILLER_13_217
*789 FILLER_13_223
*790 FILLER_13_225
*791 FILLER_13_237
*792 FILLER_13_249
*793 FILLER_13_25
*794 FILLER_13_261
*795 FILLER_13_273
*796 FILLER_13_279
*797 FILLER_13_281
*798 FILLER_13_293
*799 FILLER_13_3
*800 FILLER_13_33
*801 FILLER_13_54
*802 FILLER_13_57
*803 FILLER_13_68
*804 FILLER_13_77
*805 FILLER_14_121
*806 FILLER_14_130
*807 FILLER_14_137
*808 FILLER_14_141
*809 FILLER_14_169
*810 FILLER_14_194
*811 FILLER_14_197
*812 FILLER_14_209
*813 FILLER_14_22
*814 FILLER_14_221
*815 FILLER_14_233
*816 FILLER_14_245
*817 FILLER_14_251
*818 FILLER_14_253
*819 FILLER_14_265
*820 FILLER_14_277
*821 FILLER_14_289
*822 FILLER_14_29
*823 FILLER_14_297
*824 FILLER_14_3
*825 FILLER_14_52
*826 FILLER_14_56
*827 FILLER_14_78
*828 FILLER_14_85
*829 FILLER_14_9
*830 FILLER_14_97
*831 FILLER_15_110
*832 FILLER_15_113
*833 FILLER_15_141
*834 FILLER_15_166
*835 FILLER_15_169
*836 FILLER_15_174
*837 FILLER_15_18
*838 FILLER_15_181
*839 FILLER_15_188
*840 FILLER_15_195
*841 FILLER_15_207
*842 FILLER_15_219
*843 FILLER_15_223
*844 FILLER_15_225
*845 FILLER_15_237
*846 FILLER_15_249
*847 FILLER_15_261
*848 FILLER_15_273
*849 FILLER_15_279
*850 FILLER_15_281
*851 FILLER_15_293
*852 FILLER_15_3
*853 FILLER_15_43
*854 FILLER_15_54
*855 FILLER_15_57
*856 FILLER_15_62
*857 FILLER_15_71
*858 FILLER_15_95
*859 FILLER_16_111
*860 FILLER_16_138
*861 FILLER_16_141
*862 FILLER_16_152
*863 FILLER_16_158
*864 FILLER_16_179
*865 FILLER_16_186
*866 FILLER_16_193
*867 FILLER_16_197
*868 FILLER_16_209
*869 FILLER_16_221
*870 FILLER_16_233
*871 FILLER_16_245
*872 FILLER_16_25
*873 FILLER_16_251
*874 FILLER_16_253
*875 FILLER_16_265
*876 FILLER_16_277
*877 FILLER_16_289
*878 FILLER_16_29
*879 FILLER_16_297
*880 FILLER_16_3
*881 FILLER_16_33
*882 FILLER_16_40
*883 FILLER_16_44
*884 FILLER_16_65
*885 FILLER_16_82
*886 FILLER_16_85
*887 FILLER_16_89
*888 FILLER_17_110
*889 FILLER_17_113
*890 FILLER_17_122
*891 FILLER_17_150
*892 FILLER_17_156
*893 FILLER_17_166
*894 FILLER_17_169
*895 FILLER_17_198
*896 FILLER_17_210
*897 FILLER_17_222
*898 FILLER_17_225
*899 FILLER_17_237
*900 FILLER_17_249
*901 FILLER_17_261
*902 FILLER_17_273
*903 FILLER_17_279
*904 FILLER_17_281
*905 FILLER_17_293
*906 FILLER_17_3
*907 FILLER_17_30
*908 FILLER_17_54
*909 FILLER_17_57
*910 FILLER_17_81
*911 FILLER_17_89
*912 FILLER_17_9
*913 FILLER_18_121
*914 FILLER_18_132
*915 FILLER_18_141
*916 FILLER_18_152
*917 FILLER_18_158
*918 FILLER_18_179
*919 FILLER_18_186
*920 FILLER_18_193
*921 FILLER_18_197
*922 FILLER_18_209
*923 FILLER_18_221
*924 FILLER_18_233
*925 FILLER_18_245
*926 FILLER_18_251
*927 FILLER_18_253
*928 FILLER_18_26
*929 FILLER_18_265
*930 FILLER_18_277
*931 FILLER_18_289
*932 FILLER_18_29
*933 FILLER_18_297
*934 FILLER_18_3
*935 FILLER_18_35
*936 FILLER_18_60
*937 FILLER_18_64
*938 FILLER_18_68
*939 FILLER_18_81
*940 FILLER_18_85
*941 FILLER_18_9
*942 FILLER_18_97
*943 FILLER_19_105
*944 FILLER_19_111
*945 FILLER_19_113
*946 FILLER_19_126
*947 FILLER_19_136
*948 FILLER_19_144
*949 FILLER_19_166
*950 FILLER_19_169
*951 FILLER_19_17
*952 FILLER_19_175
*953 FILLER_19_182
*954 FILLER_19_189
*955 FILLER_19_196
*956 FILLER_19_203
*957 FILLER_19_215
*958 FILLER_19_223
*959 FILLER_19_225
*960 FILLER_19_237
*961 FILLER_19_249
*962 FILLER_19_261
*963 FILLER_19_273
*964 FILLER_19_279
*965 FILLER_19_281
*966 FILLER_19_293
*967 FILLER_19_3
*968 FILLER_19_40
*969 FILLER_19_44
*970 FILLER_19_54
*971 FILLER_19_57
*972 FILLER_19_80
*973 FILLER_19_9
*974 FILLER_1_10
*975 FILLER_1_110
*976 FILLER_1_113
*977 FILLER_1_131
*978 FILLER_1_135
*979 FILLER_1_152
*980 FILLER_1_159
*981 FILLER_1_166
*982 FILLER_1_169
*983 FILLER_1_17
*984 FILLER_1_174
*985 FILLER_1_181
*986 FILLER_1_188
*987 FILLER_1_195
*988 FILLER_1_207
*989 FILLER_1_219
*990 FILLER_1_223
*991 FILLER_1_225
*992 FILLER_1_237
*993 FILLER_1_24
*994 FILLER_1_249
*995 FILLER_1_261
*996 FILLER_1_273
*997 FILLER_1_279
*998 FILLER_1_281
*999 FILLER_1_293
*1000 FILLER_1_3
*1001 FILLER_1_31
*1002 FILLER_1_38
*1003 FILLER_1_45
*1004 FILLER_1_54
*1005 FILLER_1_57
*1006 FILLER_1_68
*1007 FILLER_1_90
*1008 FILLER_20_106
*1009 FILLER_20_114
*1010 FILLER_20_136
*1011 FILLER_20_141
*1012 FILLER_20_149
*1013 FILLER_20_166
*1014 FILLER_20_172
*1015 FILLER_20_194
*1016 FILLER_20_197
*1017 FILLER_20_202
*1018 FILLER_20_214
*1019 FILLER_20_226
*1020 FILLER_20_238
*1021 FILLER_20_25
*1022 FILLER_20_250
*1023 FILLER_20_253
*1024 FILLER_20_265
*1025 FILLER_20_277
*1026 FILLER_20_289
*1027 FILLER_20_29
*1028 FILLER_20_297
*1029 FILLER_20_3
*1030 FILLER_20_37
*1031 FILLER_20_46
*1032 FILLER_20_52
*1033 FILLER_20_56
*1034 FILLER_20_69
*1035 FILLER_20_77
*1036 FILLER_20_82
*1037 FILLER_20_85
*1038 FILLER_20_89
*1039 FILLER_20_93
*1040 FILLER_21_108
*1041 FILLER_21_113
*1042 FILLER_21_122
*1043 FILLER_21_130
*1044 FILLER_21_151
*1045 FILLER_21_166
*1046 FILLER_21_169
*1047 FILLER_21_191
*1048 FILLER_21_198
*1049 FILLER_21_20
*1050 FILLER_21_205
*1051 FILLER_21_217
*1052 FILLER_21_223
*1053 FILLER_21_225
*1054 FILLER_21_237
*1055 FILLER_21_24
*1056 FILLER_21_249
*1057 FILLER_21_261
*1058 FILLER_21_273
*1059 FILLER_21_279
*1060 FILLER_21_281
*1061 FILLER_21_293
*1062 FILLER_21_3
*1063 FILLER_21_30
*1064 FILLER_21_54
*1065 FILLER_21_57
*1066 FILLER_21_63
*1067 FILLER_21_84
*1068 FILLER_22_122
*1069 FILLER_22_132
*1070 FILLER_22_141
*1071 FILLER_22_168
*1072 FILLER_22_172
*1073 FILLER_22_194
*1074 FILLER_22_197
*1075 FILLER_22_202
*1076 FILLER_22_214
*1077 FILLER_22_226
*1078 FILLER_22_238
*1079 FILLER_22_25
*1080 FILLER_22_250
*1081 FILLER_22_253
*1082 FILLER_22_265
*1083 FILLER_22_277
*1084 FILLER_22_289
*1085 FILLER_22_29
*1086 FILLER_22_297
*1087 FILLER_22_3
*1088 FILLER_22_53
*1089 FILLER_22_66
*1090 FILLER_22_74
*1091 FILLER_22_78
*1092 FILLER_22_82
*1093 FILLER_22_85
*1094 FILLER_22_98
*1095 FILLER_23_105
*1096 FILLER_23_111
*1097 FILLER_23_113
*1098 FILLER_23_119
*1099 FILLER_23_123
*1100 FILLER_23_145
*1101 FILLER_23_158
*1102 FILLER_23_165
*1103 FILLER_23_169
*1104 FILLER_23_176
*1105 FILLER_23_18
*1106 FILLER_23_183
*1107 FILLER_23_190
*1108 FILLER_23_197
*1109 FILLER_23_204
*1110 FILLER_23_216
*1111 FILLER_23_225
*1112 FILLER_23_237
*1113 FILLER_23_249
*1114 FILLER_23_261
*1115 FILLER_23_273
*1116 FILLER_23_279
*1117 FILLER_23_281
*1118 FILLER_23_293
*1119 FILLER_23_3
*1120 FILLER_23_43
*1121 FILLER_23_54
*1122 FILLER_23_57
*1123 FILLER_23_85
*1124 FILLER_23_95
*1125 FILLER_23_99
*1126 FILLER_24_105
*1127 FILLER_24_117
*1128 FILLER_24_124
*1129 FILLER_24_128
*1130 FILLER_24_134
*1131 FILLER_24_141
*1132 FILLER_24_146
*1133 FILLER_24_15
*1134 FILLER_24_153
*1135 FILLER_24_181
*1136 FILLER_24_188
*1137 FILLER_24_19
*1138 FILLER_24_197
*1139 FILLER_24_202
*1140 FILLER_24_214
*1141 FILLER_24_226
*1142 FILLER_24_238
*1143 FILLER_24_250
*1144 FILLER_24_253
*1145 FILLER_24_26
*1146 FILLER_24_265
*1147 FILLER_24_277
*1148 FILLER_24_289
*1149 FILLER_24_29
*1150 FILLER_24_297
*1151 FILLER_24_3
*1152 FILLER_24_35
*1153 FILLER_24_39
*1154 FILLER_24_52
*1155 FILLER_24_77
*1156 FILLER_24_83
*1157 FILLER_24_85
*1158 FILLER_24_9
*1159 FILLER_24_96
*1160 FILLER_25_104
*1161 FILLER_25_11
*1162 FILLER_25_113
*1163 FILLER_25_123
*1164 FILLER_25_130
*1165 FILLER_25_154
*1166 FILLER_25_163
*1167 FILLER_25_167
*1168 FILLER_25_169
*1169 FILLER_25_198
*1170 FILLER_25_205
*1171 FILLER_25_217
*1172 FILLER_25_223
*1173 FILLER_25_225
*1174 FILLER_25_237
*1175 FILLER_25_24
*1176 FILLER_25_249
*1177 FILLER_25_261
*1178 FILLER_25_273
*1179 FILLER_25_279
*1180 FILLER_25_281
*1181 FILLER_25_293
*1182 FILLER_25_3
*1183 FILLER_25_52
*1184 FILLER_25_57
*1185 FILLER_25_7
*1186 FILLER_25_81
*1187 FILLER_25_87
*1188 FILLER_25_94
*1189 FILLER_26_101
*1190 FILLER_26_107
*1191 FILLER_26_128
*1192 FILLER_26_137
*1193 FILLER_26_141
*1194 FILLER_26_170
*1195 FILLER_26_183
*1196 FILLER_26_190
*1197 FILLER_26_197
*1198 FILLER_26_202
*1199 FILLER_26_214
*1200 FILLER_26_226
*1201 FILLER_26_238
*1202 FILLER_26_25
*1203 FILLER_26_250
*1204 FILLER_26_253
*1205 FILLER_26_265
*1206 FILLER_26_277
*1207 FILLER_26_289
*1208 FILLER_26_29
*1209 FILLER_26_297
*1210 FILLER_26_3
*1211 FILLER_26_52
*1212 FILLER_26_77
*1213 FILLER_26_83
*1214 FILLER_26_85
*1215 FILLER_27_102
*1216 FILLER_27_110
*1217 FILLER_27_113
*1218 FILLER_27_135
*1219 FILLER_27_150
*1220 FILLER_27_156
*1221 FILLER_27_166
*1222 FILLER_27_169
*1223 FILLER_27_17
*1224 FILLER_27_175
*1225 FILLER_27_197
*1226 FILLER_27_209
*1227 FILLER_27_21
*1228 FILLER_27_221
*1229 FILLER_27_225
*1230 FILLER_27_237
*1231 FILLER_27_249
*1232 FILLER_27_261
*1233 FILLER_27_273
*1234 FILLER_27_279
*1235 FILLER_27_281
*1236 FILLER_27_293
*1237 FILLER_27_3
*1238 FILLER_27_46
*1239 FILLER_27_50
*1240 FILLER_27_54
*1241 FILLER_27_57
*1242 FILLER_27_68
*1243 FILLER_27_77
*1244 FILLER_27_9
*1245 FILLER_28_109
*1246 FILLER_28_119
*1247 FILLER_28_127
*1248 FILLER_28_137
*1249 FILLER_28_141
*1250 FILLER_28_164
*1251 FILLER_28_188
*1252 FILLER_28_197
*1253 FILLER_28_209
*1254 FILLER_28_221
*1255 FILLER_28_233
*1256 FILLER_28_245
*1257 FILLER_28_25
*1258 FILLER_28_251
*1259 FILLER_28_253
*1260 FILLER_28_265
*1261 FILLER_28_277
*1262 FILLER_28_289
*1263 FILLER_28_29
*1264 FILLER_28_297
*1265 FILLER_28_3
*1266 FILLER_28_36
*1267 FILLER_28_49
*1268 FILLER_28_74
*1269 FILLER_28_78
*1270 FILLER_28_82
*1271 FILLER_28_85
*1272 FILLER_29_105
*1273 FILLER_29_111
*1274 FILLER_29_113
*1275 FILLER_29_137
*1276 FILLER_29_15
*1277 FILLER_29_166
*1278 FILLER_29_169
*1279 FILLER_29_180
*1280 FILLER_29_187
*1281 FILLER_29_194
*1282 FILLER_29_206
*1283 FILLER_29_218
*1284 FILLER_29_225
*1285 FILLER_29_237
*1286 FILLER_29_249
*1287 FILLER_29_25
*1288 FILLER_29_261
*1289 FILLER_29_273
*1290 FILLER_29_279
*1291 FILLER_29_281
*1292 FILLER_29_293
*1293 FILLER_29_3
*1294 FILLER_29_53
*1295 FILLER_29_57
*1296 FILLER_29_62
*1297 FILLER_29_79
*1298 FILLER_29_83
*1299 FILLER_29_9
*1300 FILLER_2_118
*1301 FILLER_2_129
*1302 FILLER_2_138
*1303 FILLER_2_14
*1304 FILLER_2_141
*1305 FILLER_2_147
*1306 FILLER_2_167
*1307 FILLER_2_174
*1308 FILLER_2_18
*1309 FILLER_2_181
*1310 FILLER_2_188
*1311 FILLER_2_197
*1312 FILLER_2_209
*1313 FILLER_2_221
*1314 FILLER_2_233
*1315 FILLER_2_245
*1316 FILLER_2_25
*1317 FILLER_2_251
*1318 FILLER_2_253
*1319 FILLER_2_265
*1320 FILLER_2_277
*1321 FILLER_2_289
*1322 FILLER_2_29
*1323 FILLER_2_297
*1324 FILLER_2_3
*1325 FILLER_2_34
*1326 FILLER_2_54
*1327 FILLER_2_65
*1328 FILLER_2_73
*1329 FILLER_2_8
*1330 FILLER_2_81
*1331 FILLER_2_85
*1332 FILLER_2_98
*1333 FILLER_30_102
*1334 FILLER_30_108
*1335 FILLER_30_130
*1336 FILLER_30_137
*1337 FILLER_30_141
*1338 FILLER_30_169
*1339 FILLER_30_19
*1340 FILLER_30_194
*1341 FILLER_30_197
*1342 FILLER_30_209
*1343 FILLER_30_221
*1344 FILLER_30_233
*1345 FILLER_30_245
*1346 FILLER_30_251
*1347 FILLER_30_253
*1348 FILLER_30_26
*1349 FILLER_30_265
*1350 FILLER_30_277
*1351 FILLER_30_289
*1352 FILLER_30_29
*1353 FILLER_30_297
*1354 FILLER_30_3
*1355 FILLER_30_35
*1356 FILLER_30_39
*1357 FILLER_30_46
*1358 FILLER_30_53
*1359 FILLER_30_66
*1360 FILLER_30_72
*1361 FILLER_30_82
*1362 FILLER_30_85
*1363 FILLER_30_9
*1364 FILLER_31_110
*1365 FILLER_31_113
*1366 FILLER_31_123
*1367 FILLER_31_131
*1368 FILLER_31_157
*1369 FILLER_31_16
*1370 FILLER_31_164
*1371 FILLER_31_169
*1372 FILLER_31_175
*1373 FILLER_31_182
*1374 FILLER_31_194
*1375 FILLER_31_206
*1376 FILLER_31_218
*1377 FILLER_31_225
*1378 FILLER_31_237
*1379 FILLER_31_249
*1380 FILLER_31_261
*1381 FILLER_31_273
*1382 FILLER_31_279
*1383 FILLER_31_281
*1384 FILLER_31_293
*1385 FILLER_31_3
*1386 FILLER_31_41
*1387 FILLER_31_50
*1388 FILLER_31_57
*1389 FILLER_31_62
*1390 FILLER_31_86
*1391 FILLER_31_9
*1392 FILLER_32_100
*1393 FILLER_32_106
*1394 FILLER_32_130
*1395 FILLER_32_134
*1396 FILLER_32_138
*1397 FILLER_32_141
*1398 FILLER_32_152
*1399 FILLER_32_158
*1400 FILLER_32_179
*1401 FILLER_32_186
*1402 FILLER_32_194
*1403 FILLER_32_197
*1404 FILLER_32_209
*1405 FILLER_32_221
*1406 FILLER_32_233
*1407 FILLER_32_245
*1408 FILLER_32_25
*1409 FILLER_32_251
*1410 FILLER_32_253
*1411 FILLER_32_265
*1412 FILLER_32_277
*1413 FILLER_32_289
*1414 FILLER_32_29
*1415 FILLER_32_297
*1416 FILLER_32_3
*1417 FILLER_32_40
*1418 FILLER_32_65
*1419 FILLER_32_75
*1420 FILLER_32_82
*1421 FILLER_32_85
*1422 FILLER_32_96
*1423 FILLER_33_110
*1424 FILLER_33_113
*1425 FILLER_33_121
*1426 FILLER_33_125
*1427 FILLER_33_147
*1428 FILLER_33_155
*1429 FILLER_33_166
*1430 FILLER_33_169
*1431 FILLER_33_175
*1432 FILLER_33_197
*1433 FILLER_33_209
*1434 FILLER_33_22
*1435 FILLER_33_221
*1436 FILLER_33_225
*1437 FILLER_33_237
*1438 FILLER_33_249
*1439 FILLER_33_26
*1440 FILLER_33_261
*1441 FILLER_33_273
*1442 FILLER_33_279
*1443 FILLER_33_281
*1444 FILLER_33_293
*1445 FILLER_33_3
*1446 FILLER_33_47
*1447 FILLER_33_54
*1448 FILLER_33_57
*1449 FILLER_33_79
*1450 FILLER_33_86
*1451 FILLER_33_9
*1452 FILLER_34_109
*1453 FILLER_34_117
*1454 FILLER_34_127
*1455 FILLER_34_138
*1456 FILLER_34_141
*1457 FILLER_34_163
*1458 FILLER_34_170
*1459 FILLER_34_177
*1460 FILLER_34_184
*1461 FILLER_34_197
*1462 FILLER_34_209
*1463 FILLER_34_221
*1464 FILLER_34_233
*1465 FILLER_34_245
*1466 FILLER_34_25
*1467 FILLER_34_251
*1468 FILLER_34_253
*1469 FILLER_34_265
*1470 FILLER_34_277
*1471 FILLER_34_289
*1472 FILLER_34_29
*1473 FILLER_34_297
*1474 FILLER_34_3
*1475 FILLER_34_33
*1476 FILLER_34_54
*1477 FILLER_34_60
*1478 FILLER_34_82
*1479 FILLER_34_85
*1480 FILLER_35_109
*1481 FILLER_35_113
*1482 FILLER_35_124
*1483 FILLER_35_141
*1484 FILLER_35_16
*1485 FILLER_35_166
*1486 FILLER_35_169
*1487 FILLER_35_174
*1488 FILLER_35_181
*1489 FILLER_35_188
*1490 FILLER_35_200
*1491 FILLER_35_212
*1492 FILLER_35_225
*1493 FILLER_35_237
*1494 FILLER_35_249
*1495 FILLER_35_261
*1496 FILLER_35_273
*1497 FILLER_35_279
*1498 FILLER_35_281
*1499 FILLER_35_293
*1500 FILLER_35_3
*1501 FILLER_35_41
*1502 FILLER_35_54
*1503 FILLER_35_57
*1504 FILLER_35_80
*1505 FILLER_35_88
*1506 FILLER_35_9
*1507 FILLER_36_10
*1508 FILLER_36_100
*1509 FILLER_36_121
*1510 FILLER_36_134
*1511 FILLER_36_141
*1512 FILLER_36_169
*1513 FILLER_36_194
*1514 FILLER_36_197
*1515 FILLER_36_209
*1516 FILLER_36_221
*1517 FILLER_36_23
*1518 FILLER_36_233
*1519 FILLER_36_245
*1520 FILLER_36_251
*1521 FILLER_36_253
*1522 FILLER_36_265
*1523 FILLER_36_27
*1524 FILLER_36_277
*1525 FILLER_36_289
*1526 FILLER_36_29
*1527 FILLER_36_297
*1528 FILLER_36_3
*1529 FILLER_36_33
*1530 FILLER_36_40
*1531 FILLER_36_44
*1532 FILLER_36_65
*1533 FILLER_36_82
*1534 FILLER_36_85
*1535 FILLER_36_96
*1536 FILLER_37_100
*1537 FILLER_37_110
*1538 FILLER_37_113
*1539 FILLER_37_120
*1540 FILLER_37_144
*1541 FILLER_37_15
*1542 FILLER_37_153
*1543 FILLER_37_166
*1544 FILLER_37_169
*1545 FILLER_37_174
*1546 FILLER_37_181
*1547 FILLER_37_188
*1548 FILLER_37_200
*1549 FILLER_37_212
*1550 FILLER_37_225
*1551 FILLER_37_237
*1552 FILLER_37_249
*1553 FILLER_37_261
*1554 FILLER_37_273
*1555 FILLER_37_279
*1556 FILLER_37_281
*1557 FILLER_37_293
*1558 FILLER_37_3
*1559 FILLER_37_40
*1560 FILLER_37_54
*1561 FILLER_37_57
*1562 FILLER_37_71
*1563 FILLER_37_8
*1564 FILLER_37_96
*1565 FILLER_38_111
*1566 FILLER_38_117
*1567 FILLER_38_138
*1568 FILLER_38_141
*1569 FILLER_38_149
*1570 FILLER_38_173
*1571 FILLER_38_180
*1572 FILLER_38_192
*1573 FILLER_38_197
*1574 FILLER_38_209
*1575 FILLER_38_221
*1576 FILLER_38_233
*1577 FILLER_38_245
*1578 FILLER_38_25
*1579 FILLER_38_251
*1580 FILLER_38_253
*1581 FILLER_38_265
*1582 FILLER_38_277
*1583 FILLER_38_289
*1584 FILLER_38_29
*1585 FILLER_38_297
*1586 FILLER_38_3
*1587 FILLER_38_40
*1588 FILLER_38_44
*1589 FILLER_38_66
*1590 FILLER_38_79
*1591 FILLER_38_83
*1592 FILLER_38_85
*1593 FILLER_39_105
*1594 FILLER_39_111
*1595 FILLER_39_113
*1596 FILLER_39_122
*1597 FILLER_39_139
*1598 FILLER_39_151
*1599 FILLER_39_166
*1600 FILLER_39_169
*1601 FILLER_39_192
*1602 FILLER_39_204
*1603 FILLER_39_216
*1604 FILLER_39_22
*1605 FILLER_39_225
*1606 FILLER_39_237
*1607 FILLER_39_249
*1608 FILLER_39_261
*1609 FILLER_39_273
*1610 FILLER_39_279
*1611 FILLER_39_281
*1612 FILLER_39_293
*1613 FILLER_39_3
*1614 FILLER_39_48
*1615 FILLER_39_57
*1616 FILLER_39_79
*1617 FILLER_39_83
*1618 FILLER_39_9
*1619 FILLER_3_100
*1620 FILLER_3_107
*1621 FILLER_3_111
*1622 FILLER_3_113
*1623 FILLER_3_118
*1624 FILLER_3_122
*1625 FILLER_3_128
*1626 FILLER_3_138
*1627 FILLER_3_146
*1628 FILLER_3_15
*1629 FILLER_3_154
*1630 FILLER_3_161
*1631 FILLER_3_167
*1632 FILLER_3_169
*1633 FILLER_3_174
*1634 FILLER_3_181
*1635 FILLER_3_193
*1636 FILLER_3_205
*1637 FILLER_3_217
*1638 FILLER_3_223
*1639 FILLER_3_225
*1640 FILLER_3_237
*1641 FILLER_3_249
*1642 FILLER_3_26
*1643 FILLER_3_261
*1644 FILLER_3_273
*1645 FILLER_3_279
*1646 FILLER_3_281
*1647 FILLER_3_293
*1648 FILLER_3_3
*1649 FILLER_3_33
*1650 FILLER_3_40
*1651 FILLER_3_47
*1652 FILLER_3_54
*1653 FILLER_3_57
*1654 FILLER_3_65
*1655 FILLER_3_72
*1656 FILLER_3_8
*1657 FILLER_3_81
*1658 FILLER_3_91
*1659 FILLER_40_102
*1660 FILLER_40_131
*1661 FILLER_40_138
*1662 FILLER_40_141
*1663 FILLER_40_150
*1664 FILLER_40_159
*1665 FILLER_40_16
*1666 FILLER_40_166
*1667 FILLER_40_170
*1668 FILLER_40_174
*1669 FILLER_40_181
*1670 FILLER_40_193
*1671 FILLER_40_197
*1672 FILLER_40_20
*1673 FILLER_40_209
*1674 FILLER_40_221
*1675 FILLER_40_233
*1676 FILLER_40_245
*1677 FILLER_40_251